<?xml version="1.0" encoding="UTF-8"?>

<!-- generated on 2025-07-08 11:01:21 by Eclipse SUMO netedit Version 1.22.0
<neteditConfiguration xmlns:xsi="http://www.w3.org/2001/XMLSchema-instance" xsi:noNamespaceSchemaLocation="http://sumo.dlr.de/xsd/neteditConfiguration.xsd">

    <input>
        <sumocfg-file value="C:\Users\Admin\Downloads\New-folder&#45;&#45;6-\dataset1.sumocfg"/>
        <route-files value="C:\Users\Admin\Downloads\New-folder&#45;&#45;6-\dataset1.rou.xml"/>
        <sumo-net-file value="C:\Users\Admin\Downloads\New-folder&#45;&#45;6-\dataset.net.xml"/>
    </input>

    <processing>
        <geometry.min-radius.fix.railways value="false"/>
        <geometry.max-grade.fix value="false"/>
        <offset.disable-normalization value="true"/>
        <lefthand value="0"/>
    </processing>

    <junctions>
        <no-turnarounds value="true"/>
        <junctions.corner-detail value="5"/>
        <junctions.limit-turn-speed value="5.50"/>
        <rectangular-lane-cut value="0"/>
    </junctions>

    <pedestrian>
        <walkingareas value="0"/>
    </pedestrian>

</neteditConfiguration>
-->

<additional xmlns:xsi="http://www.w3.org/2001/XMLSchema-instance" xsi:noNamespaceSchemaLocation="http://sumo.dlr.de/xsd/additional_file.xsd">
    <tlLogic id="E3" type="static" programID="0" offset="0">
        <phase duration="12" state="rrrrrGGrrrrrrrrrrrrrrrr"/> <!-- North approach left only -->
        <phase duration="3" state="rrrrryrrrrrrrrrrrrrrrr"/>
        <phase duration="42" state="rrrrrrGGGGGggrrrrrGGGgg"/>
        <phase duration="3" state="rrrrrryyyyyyyrrrrryyyyy"/>
        <phase duration="12" state="rrrrrrrrrrrGGrrrrrrrrr"/> <!-- East approach left only -->
        <phase duration="3" state="rrrrrrrrrrryyrrrrrrrrr"/>
        <phase duration="42" state="GGGGggrrrrrrGGGGggrrrrr"/>
        <phase duration="3" state="yyyyyyrrrrrryyyyyyrrrrr"/>
<!-- repeat for south and west as needed -->
    </tlLogic>
</additional>
