<?xml version="1.0" encoding="UTF-8"?>

<!-- generated on 2025-07-09 09:16:46 by Eclipse SUMO netedit Version 1.22.0
<neteditConfiguration xmlns:xsi="http://www.w3.org/2001/XMLSchema-instance" xsi:noNamespaceSchemaLocation="http://sumo.dlr.de/xsd/neteditConfiguration.xsd">

    <input>
        <sumo-net-file value="C:\Users\Admin\Downloads\New-folder&#45;&#45;6-\20e.net.xml"/>
    </input>

    <output>
        <output-file value="C:\Users\Admin\Downloads\New-folder&#45;&#45;6-\20e.net.xml"/>
    </output>

    <processing>
        <geometry.min-radius.fix.railways value="false"/>
        <geometry.max-grade.fix value="false"/>
        <offset.disable-normalization value="true"/>
        <lefthand value="0"/>
    </processing>

    <junctions>
        <no-turnarounds value="true"/>
        <junctions.corner-detail value="5"/>
        <junctions.limit-turn-speed value="5.50"/>
        <rectangular-lane-cut value="0"/>
    </junctions>

    <pedestrian>
        <walkingareas value="0"/>
    </pedestrian>

</neteditConfiguration>
-->

<net version="1.20" junctionCornerDetail="5" limitTurnSpeed="5.50" xmlns:xsi="http://www.w3.org/2001/XMLSchema-instance" xsi:noNamespaceSchemaLocation="http://sumo.dlr.de/xsd/net_file.xsd">

    <location netOffset="0.00,0.00" convBoundary="-251.47,-324.33,314.75,98.34" origBoundary="-10000000000.00,-10000000000.00,10000000000.00,10000000000.00" projParameter="!"/>

    <edge id=":J10_0" function="internal">
        <lane id=":J10_0_0" index="0" speed="8.79" length="26.36" shape="300.57,-41.73 307.85,-41.91 312.88,-38.83 315.00,-33.32 313.51,-26.20"/>
        <lane id=":J10_0_1" index="1" speed="8.01" length="21.60" shape="301.36,-38.63 308.03,-39.49 311.79,-37.93 312.65,-33.94 310.60,-27.54"/>
    </edge>
    <edge id=":J10_2" function="internal">
        <lane id=":J10_2_0" index="0" speed="4.04" length="4.32" shape="304.79,-30.21 305.20,-31.49 305.03,-32.29 304.27,-32.60 302.94,-32.43"/>
        <lane id=":J10_2_1" index="1" speed="6.34" length="12.96" shape="307.70,-28.88 308.92,-32.72 308.41,-35.11 306.15,-36.05 302.15,-35.53"/>
    </edge>
    <edge id=":J11_0" function="internal">
        <lane id=":J11_0_0" index="0" speed="9.21" length="12.56" shape="-144.11,-62.07 -146.53,-61.51 -148.78,-59.95 -150.87,-57.40 -152.79,-53.84"/>
    </edge>
    <edge id=":J11_1" function="internal">
        <lane id=":J11_1_0" index="0" speed="13.89" length="20.64" shape="-144.11,-62.07 -150.20,-62.05 -154.59,-62.41 -158.94,-63.21 -164.90,-64.54"/>
        <lane id=":J11_1_1" index="1" speed="13.89" length="20.64" shape="-144.19,-65.27 -150.16,-65.24 -154.29,-65.57 -158.37,-66.35 -164.21,-67.66"/>
    </edge>
    <edge id=":J11_3" function="internal">
        <lane id=":J11_3_0" index="0" speed="13.89" length="19.10" shape="-162.84,-73.91 -157.42,-72.69 -153.67,-71.95 -149.88,-71.64 -144.35,-71.67"/>
        <lane id=":J11_3_1" index="1" speed="13.89" length="19.10" shape="-163.53,-70.79 -157.88,-69.51 -153.98,-68.76 -150.03,-68.44 -144.27,-68.47"/>
    </edge>
    <edge id=":J11_5" function="internal">
        <lane id=":J11_5_0" index="0" speed="8.98" length="5.15" shape="-163.53,-70.79 -158.71,-68.98"/>
    </edge>
    <edge id=":J11_8" function="internal">
        <lane id=":J11_8_0" index="0" speed="8.98" length="15.90" shape="-158.71,-68.98 -157.95,-68.69 -154.79,-65.39 -154.04,-60.88 -155.70,-55.17"/>
    </edge>
    <edge id=":J11_6" function="internal">
        <lane id=":J11_6_0" index="0" speed="6.10" length="9.06" shape="-161.53,-57.81 -160.81,-60.27 -161.14,-62.21 -162.50,-63.63 -164.90,-64.54"/>
    </edge>
    <edge id=":J11_7" function="internal">
        <lane id=":J11_7_0" index="0" speed="11.43" length="19.72" shape="-158.62,-56.49 -155.72,-61.65 -152.36,-65.36 -148.54,-67.63 -144.27,-68.47"/>
    </edge>
    <edge id=":J12_0" function="internal">
        <lane id=":J12_0_0" index="0" speed="13.89" length="31.80" shape="-177.92,23.81 -185.34,22.28 -192.01,18.87 -197.93,13.60 -203.09,6.45"/>
        <lane id=":J12_0_1" index="1" speed="13.89" length="28.73" shape="-177.68,20.62 -184.32,19.23 -190.31,16.14 -195.65,11.33 -200.33,4.82"/>
    </edge>
    <edge id=":J12_2" function="internal">
        <lane id=":J12_2_0" index="0" speed="9.29" length="7.09" shape="-177.68,20.62 -183.93,19.05 -184.37,18.58"/>
    </edge>
    <edge id=":J12_8" function="internal">
        <lane id=":J12_8_0" index="0" speed="9.29" length="17.62" shape="-184.37,18.58 -187.30,15.51 -187.78,10.00 -185.39,2.53"/>
    </edge>
    <edge id=":J12_3" function="internal">
        <lane id=":J12_3_0" index="0" speed="6.53" length="11.54" shape="-179.56,5.17 -180.87,8.96 -180.92,11.73 -179.69,13.49 -177.19,14.24"/>
    </edge>
    <edge id=":J12_4" function="internal">
        <lane id=":J12_4_0" index="0" speed="8.82" length="25.60" shape="-182.47,3.85 -186.59,10.52 -190.94,12.91 -195.52,11.01 -200.33,4.82"/>
    </edge>
    <edge id=":J12_5" function="internal">
        <lane id=":J12_5_0" index="0" speed="5.59" length="9.35" shape="-194.83,1.56 -193.07,3.82 -191.40,4.51 -189.81,3.64 -188.30,1.21"/>
    </edge>
    <edge id=":J12_6" function="internal">
        <lane id=":J12_6_0" index="0" speed="13.51" length="22.59" shape="-194.83,1.56 -191.09,6.80 -186.91,10.66 -182.27,13.14 -177.19,14.24"/>
        <lane id=":J12_6_1" index="1" speed="13.89" length="25.66" shape="-197.58,3.19 -193.37,9.07 -188.61,13.40 -183.30,16.19 -177.43,17.43"/>
    </edge>
    <edge id=":J13_0" function="internal">
        <lane id=":J13_0_0" index="0" speed="10.00" length="14.94" shape="-23.35,43.67 -25.25,40.02 -27.72,37.34 -30.75,35.60 -34.36,34.83"/>
        <lane id=":J13_0_1" index="1" speed="11.10" length="18.54" shape="-20.37,42.50 -22.71,38.03 -25.79,34.73 -29.58,32.60 -34.11,31.64"/>
    </edge>
    <edge id=":J13_2" function="internal">
        <lane id=":J13_2_0" index="0" speed="13.89" length="23.94" shape="-20.37,42.50 -22.60,36.33 -23.93,31.08 -24.55,25.71 -24.64,19.15"/>
    </edge>
    <edge id=":J13_3" function="internal">
        <lane id=":J13_3_0" index="0" speed="8.98" length="2.82" shape="-20.37,42.50 -21.01,39.75"/>
    </edge>
    <edge id=":J13_16" function="internal">
        <lane id=":J13_16_0" index="0" speed="8.98" length="18.18" shape="-21.01,39.75 -21.73,36.72 -20.75,32.26 -17.43,29.12 -11.79,27.29"/>
    </edge>
    <edge id=":J13_4" function="internal">
        <lane id=":J13_4_0" index="0" speed="6.11" length="9.06" shape="-10.71,33.60 -13.14,34.39 -14.57,35.75 -15.00,37.67 -14.41,40.16"/>
    </edge>
    <edge id=":J13_5" function="internal">
        <lane id=":J13_5_0" index="0" speed="13.89" length="23.37" shape="-10.71,33.60 -17.16,34.61 -22.49,35.13 -27.84,35.20 -34.36,34.83"/>
        <lane id=":J13_5_1" index="1" speed="13.89" length="23.37" shape="-11.25,30.45 -17.58,31.45 -22.64,31.96 -27.72,32.01 -34.11,31.64"/>
    </edge>
    <edge id=":J13_7" function="internal">
        <lane id=":J13_7_0" index="0" speed="8.67" length="19.20" shape="-11.25,30.45 -15.78,29.92 -20.13,27.36 -23.39,23.52 -24.64,19.15"/>
    </edge>
    <edge id=":J13_8" function="internal">
        <lane id=":J13_8_0" index="0" speed="6.18" length="9.18" shape="-18.24,19.24 -17.90,21.77 -16.80,23.43 -14.94,24.22 -12.32,24.14"/>
    </edge>
    <edge id=":J13_9" function="internal">
        <lane id=":J13_9_0" index="0" speed="13.89" length="22.10" shape="-18.24,19.24 -18.22,25.42 -17.75,29.96 -16.57,34.37 -14.41,40.16"/>
        <lane id=":J13_9_1" index="1" speed="13.89" length="22.10" shape="-21.44,19.19 -21.38,25.56 -20.84,30.52 -19.58,35.35 -17.39,41.33"/>
    </edge>
    <edge id=":J13_11" function="internal">
        <lane id=":J13_11_0" index="0" speed="9.32" length="20.54" shape="-21.44,19.19 -22.30,25.00 -24.70,29.01 -28.64,31.22 -34.11,31.64"/>
    </edge>
    <edge id=":J13_12" function="internal">
        <lane id=":J13_12_0" index="0" speed="6.60" length="9.75" shape="-33.62,25.26 -31.13,25.04 -29.33,23.94 -28.24,21.96 -27.84,19.10"/>
    </edge>
    <edge id=":J13_13" function="internal">
        <lane id=":J13_13_0" index="0" speed="13.89" length="22.07" shape="-33.62,25.26 -27.39,26.14 -22.66,27.19 -17.95,27.79 -11.79,27.29"/>
    </edge>
    <edge id=":J13_14" function="internal">
        <lane id=":J13_14_0" index="0" speed="12.88" length="25.19" shape="-33.62,25.26 -28.09,26.84 -22.45,30.31 -17.59,34.99 -14.41,40.16"/>
        <lane id=":J13_14_1" index="1" speed="11.97" length="21.67" shape="-33.87,28.45 -29.14,29.81 -24.30,32.81 -20.13,36.85 -17.39,41.33"/>
    </edge>
    <edge id=":J14_0" function="internal">
        <lane id=":J14_0_0" index="0" speed="13.89" length="37.98" shape="24.99,98.89 12.67,97.25 3.11,94.13 -3.69,89.54 -7.74,83.47"/>
        <lane id=":J14_0_1" index="1" speed="13.89" length="34.38" shape="25.20,95.70 13.82,94.23 5.03,91.51 -1.16,87.54 -4.76,82.30"/>
    </edge>
    <edge id=":J14_2" function="internal">
        <lane id=":J14_2_0" index="0" speed="7.88" length="3.07" shape="25.20,95.70 22.32,94.62"/>
    </edge>
    <edge id=":J14_8" function="internal">
        <lane id=":J14_8_0" index="0" speed="7.88" length="20.74" shape="22.32,94.62 19.23,93.46 16.29,88.77 16.75,83.26 21.02,78.53"/>
    </edge>
    <edge id=":J14_3" function="internal">
        <lane id=":J14_3_0" index="0" speed="5.47" length="10.54" shape="24.33,84.02 21.49,86.11 20.75,87.69 22.13,88.76 25.62,89.31"/>
    </edge>
    <edge id=":J14_4" function="internal">
        <lane id=":J14_4_0" index="0" speed="11.07" length="31.75" shape="22.68,81.28 13.46,86.23 5.60,88.66 -0.58,87.66 -4.76,82.30"/>
    </edge>
    <edge id=":J14_5" function="internal">
        <lane id=":J14_5_0" index="0" speed="8.92" length="20.22" shape="1.20,79.96 3.14,81.76 6.82,81.67 12.23,79.68 19.37,75.79"/>
    </edge>
    <edge id=":J14_6" function="internal">
        <lane id=":J14_6_0" index="0" speed="13.29" length="27.21" shape="1.20,79.96 3.89,83.53 8.86,86.27 16.10,88.20 25.62,89.31"/>
        <lane id=":J14_6_1" index="1" speed="13.89" length="30.79" shape="-1.78,81.13 1.37,85.53 6.95,88.89 14.96,91.22 25.41,92.50"/>
    </edge>
    <edge id=":J15_0" function="internal">
        <lane id=":J15_0_0" index="0" speed="8.95" length="18.75" shape="184.91,-123.57 187.91,-119.35 188.77,-115.24 187.50,-111.24 184.09,-107.35"/>
        <lane id=":J15_0_1" index="1" speed="7.65" length="13.39" shape="182.59,-121.36 184.73,-118.35 185.35,-115.42 184.44,-112.56 182.01,-109.78"/>
    </edge>
    <edge id=":J15_2" function="internal">
        <lane id=":J15_2_0" index="0" speed="3.90" length="2.68" shape="177.84,-114.64 178.33,-115.19 178.51,-115.76 178.39,-116.35 177.96,-116.95"/>
        <lane id=":J15_2_1" index="1" speed="6.07" length="8.03" shape="179.92,-112.21 181.38,-113.88 181.93,-115.59 181.56,-117.35 180.28,-119.16"/>
    </edge>
    <edge id=":J16_0" function="internal">
        <lane id=":J16_0_0" index="0" speed="6.55" length="7.92" shape="134.89,-64.49 134.18,-66.50 133.01,-67.91 131.37,-68.73 129.26,-68.97"/>
    </edge>
    <edge id=":J16_1" function="internal">
        <lane id=":J16_1_0" index="0" speed="11.74" length="19.48" shape="134.89,-64.49 134.35,-69.84 135.04,-74.59 136.96,-78.73 140.12,-82.27"/>
        <lane id=":J16_1_1" index="1" speed="10.70" length="16.06" shape="138.02,-65.14 137.56,-69.60 138.10,-73.54 139.64,-76.95 142.20,-79.84"/>
    </edge>
    <edge id=":J16_3" function="internal">
        <lane id=":J16_3_0" index="0" speed="8.23" length="9.24" shape="146.37,-74.98 145.02,-73.40 144.22,-71.44 143.98,-69.12 144.29,-66.42"/>
        <lane id=":J16_3_1" index="1" speed="9.55" length="12.65" shape="144.28,-77.41 142.33,-75.18 141.16,-72.49 140.77,-69.36 141.16,-65.78"/>
    </edge>
    <edge id=":J16_5" function="internal">
        <lane id=":J16_5_0" index="0" speed="13.89" length="16.55" shape="144.28,-77.41 140.49,-74.42 137.45,-72.91 134.05,-72.34 129.18,-72.17"/>
    </edge>
    <edge id=":J16_6" function="internal">
        <lane id=":J16_6_0" index="0" speed="12.75" length="12.11" shape="129.01,-78.56 132.59,-78.67 135.09,-79.04 137.33,-80.10 140.12,-82.27"/>
    </edge>
    <edge id=":J16_7" function="internal">
        <lane id=":J16_7_0" index="0" speed="9.32" length="4.55" shape="129.09,-75.36 133.61,-74.86"/>
    </edge>
    <edge id=":J16_8" function="internal">
        <lane id=":J16_8_0" index="0" speed="9.32" length="12.42" shape="133.61,-74.86 137.13,-73.10 139.65,-70.07 141.16,-65.78"/>
    </edge>
    <edge id=":J17_0" function="internal">
        <lane id=":J17_0_0" index="0" speed="9.79" length="27.93" shape="8.76,-52.38 -2.54,-56.54 -10.62,-58.61 -15.48,-58.58 -17.14,-56.46"/>
    </edge>
    <edge id=":J17_1" function="internal">
        <lane id=":J17_1_0" index="0" speed="13.89" length="56.74" shape="8.76,-52.38 -2.39,-55.88 -18.63,-59.92 -35.00,-63.20 -46.56,-64.46"/>
    </edge>
    <edge id=":J17_2" function="internal">
        <lane id=":J17_2_0" index="0" speed="13.89" length="60.13" shape="8.76,-52.38 -2.42,-57.41 -18.61,-65.21 -34.64,-73.31 -45.34,-79.26"/>
        <lane id=":J17_2_1" index="1" speed="13.89" length="60.13" shape="9.95,-55.35 -1.14,-60.33 -17.15,-68.04 -33.00,-76.05 -43.62,-81.95"/>
    </edge>
    <edge id=":J17_4" function="internal">
        <lane id=":J17_4_0" index="0" speed="12.54" length="17.26" shape="9.95,-55.35 -2.98,-61.36 -5.40,-63.13"/>
    </edge>
    <edge id=":J17_5" function="internal">
        <lane id=":J17_5_0" index="0" speed="7.57" length="2.44" shape="9.95,-55.35 8.14,-56.98"/>
    </edge>
    <edge id=":J17_37" function="internal">
        <lane id=":J17_37_0" index="0" speed="12.54" length="26.34" shape="-5.40,-63.13 -12.13,-68.04 -15.90,-75.69 -12.69,-84.61"/>
    </edge>
    <edge id=":J17_38" function="internal">
        <lane id=":J17_38_0" index="0" speed="7.57" length="21.34" shape="8.14,-56.98 5.33,-59.49 4.55,-65.12 7.25,-70.11 13.03,-72.37"/>
    </edge>
    <edge id=":J17_6" function="internal">
        <lane id=":J17_6_0" index="0" speed="5.71" length="12.64" shape="13.20,-65.97 8.75,-65.56 7.13,-64.65 8.33,-63.22 12.35,-61.29"/>
    </edge>
    <edge id=":J17_7" function="internal">
        <lane id=":J17_7_0" index="0" speed="12.25" length="33.61" shape="13.20,-65.97 -0.03,-65.08 -9.49,-63.20 -15.19,-60.33 -17.14,-56.46"/>
    </edge>
    <edge id=":J17_8" function="internal">
        <lane id=":J17_8_0" index="0" speed="13.89" length="59.86" shape="13.20,-65.97 -46.64,-67.66"/>
    </edge>
    <edge id=":J17_9" function="internal">
        <lane id=":J17_9_0" index="0" speed="13.89" length="60.27" shape="13.20,-65.97 1.02,-67.18 -16.66,-70.50 -34.05,-74.87 -45.34,-79.26"/>
        <lane id=":J17_9_1" index="1" speed="13.89" length="58.41" shape="13.11,-69.17 1.22,-70.30 -15.84,-73.45 -32.61,-77.65 -43.62,-81.95"/>
    </edge>
    <edge id=":J17_11" function="internal">
        <lane id=":J17_11_0" index="0" speed="10.61" length="38.88" shape="13.11,-69.17 0.63,-69.52 -9.81,-71.72 -15.23,-76.50 -12.69,-84.61"/>
    </edge>
    <edge id=":J17_12" function="internal">
        <lane id=":J17_12_0" index="0" speed="8.42" length="23.89" shape="-7.57,-80.77 -7.93,-78.25 -4.63,-76.55 2.33,-75.65 12.95,-75.57"/>
    </edge>
    <edge id=":J17_13" function="internal">
        <lane id=":J17_13_0" index="0" speed="10.67" length="31.23" shape="-7.57,-80.77 -8.79,-76.26 -5.88,-71.51 1.17,-66.52 12.35,-61.29"/>
    </edge>
    <edge id=":J17_14" function="internal">
        <lane id=":J17_14_0" index="0" speed="13.89" length="27.94" shape="-7.57,-80.77 -12.07,-75.01 -16.15,-69.39 -19.12,-63.39 -20.33,-56.51"/>
    </edge>
    <edge id=":J17_15" function="internal">
        <lane id=":J17_15_0" index="0" speed="13.89" length="43.70" shape="-7.57,-80.77 -14.40,-73.88 -23.18,-68.87 -33.90,-65.73 -46.56,-64.46"/>
        <lane id=":J17_15_1" index="1" speed="13.89" length="40.82" shape="-10.13,-82.69 -16.46,-76.35 -24.65,-71.73 -34.71,-68.83 -46.64,-67.66"/>
    </edge>
    <edge id=":J17_17" function="internal">
        <lane id=":J17_17_0" index="0" speed="13.07" length="8.74" shape="-10.13,-82.69 -16.43,-77.03 -16.69,-76.96"/>
    </edge>
    <edge id=":J17_39" function="internal">
        <lane id=":J17_39_0" index="0" speed="13.07" length="28.59" shape="-16.69,-76.96 -24.11,-75.02 -33.18,-76.66 -43.62,-81.95"/>
    </edge>
    <edge id=":J17_18" function="internal">
        <lane id=":J17_18_0" index="0" speed="11.29" length="27.63" shape="-40.17,-87.35 -32.14,-83.16 -25.31,-81.63 -19.68,-82.75 -15.25,-86.53"/>
    </edge>
    <edge id=":J17_19" function="internal">
        <lane id=":J17_19_0" index="0" speed="13.89" length="54.68" shape="-40.17,-87.35 -29.72,-83.20 -14.20,-79.34 1.62,-76.54 12.95,-75.57"/>
        <lane id=":J17_19_1" index="1" speed="13.89" length="55.53" shape="-40.17,-87.35 -29.71,-82.70 -14.16,-77.74 1.69,-73.84 13.03,-72.37"/>
    </edge>
    <edge id=":J17_21" function="internal">
        <lane id=":J17_21_0" index="0" speed="13.89" length="58.95" shape="-40.17,-87.35 -29.72,-81.53 -14.23,-73.70 1.41,-66.18 12.35,-61.29"/>
        <lane id=":J17_21_1" index="1" speed="13.89" length="58.95" shape="-41.90,-84.65 -31.36,-78.79 -15.69,-70.87 0.14,-63.26 11.15,-58.32"/>
    </edge>
    <edge id=":J17_23" function="internal">
        <lane id=":J17_23_0" index="0" speed="13.89" length="5.60" shape="-41.90,-84.65 -37.39,-81.34"/>
    </edge>
    <edge id=":J17_24" function="internal">
        <lane id=":J17_24_0" index="0" speed="7.85" length="2.14" shape="-41.90,-84.65 -40.51,-83.02"/>
    </edge>
    <edge id=":J17_40" function="internal">
        <lane id=":J17_40_0" index="0" speed="13.89" length="31.27" shape="-37.39,-81.34 -32.39,-77.67 -25.62,-70.66 -21.60,-63.60 -20.33,-56.51"/>
    </edge>
    <edge id=":J17_41" function="internal">
        <lane id=":J17_41_0" index="0" speed="7.85" length="21.67" shape="-40.51,-83.02 -37.78,-79.80 -37.50,-74.27 -40.60,-69.67 -46.64,-67.66"/>
    </edge>
    <edge id=":J17_25" function="internal">
        <lane id=":J17_25_0" index="0" speed="5.48" length="10.64" shape="-46.79,-74.06 -43.24,-74.47 -41.81,-75.47 -42.52,-77.07 -45.34,-79.26"/>
    </edge>
    <edge id=":J17_26" function="internal">
        <lane id=":J17_26_0" index="0" speed="13.89" length="35.05" shape="-46.79,-74.06 -36.34,-75.04 -27.60,-77.45 -20.57,-81.28 -15.25,-86.53"/>
        <lane id=":J17_26_1" index="1" speed="13.89" length="37.93" shape="-46.72,-70.86 -35.53,-71.94 -26.13,-74.59 -18.51,-78.82 -12.69,-84.61"/>
    </edge>
    <edge id=":J17_28" function="internal">
        <lane id=":J17_28_0" index="0" speed="13.89" length="59.77" shape="-46.72,-70.86 13.03,-72.37"/>
    </edge>
    <edge id=":J17_29" function="internal">
        <lane id=":J17_29_0" index="0" speed="13.89" length="59.33" shape="-46.72,-70.86 -34.76,-69.53 -17.51,-66.08 -0.40,-61.89 11.15,-58.32"/>
    </edge>
    <edge id=":J17_30" function="internal">
        <lane id=":J17_30_0" index="0" speed="11.92" length="33.73" shape="-46.72,-70.86 -35.09,-70.21 -26.82,-67.60 -21.90,-63.03 -20.33,-56.51"/>
    </edge>
    <edge id=":J17_31" function="internal">
        <lane id=":J17_31_0" index="0" speed="9.99" length="23.38" shape="-26.73,-56.60 -27.93,-60.22 -31.63,-62.74 -37.84,-64.15 -46.56,-64.46"/>
    </edge>
    <edge id=":J17_32" function="internal">
        <lane id=":J17_32_0" index="0" speed="13.89" length="30.39" shape="-26.73,-56.60 -27.84,-62.02 -31.31,-67.60 -37.14,-73.34 -45.34,-79.26"/>
    </edge>
    <edge id=":J17_33" function="internal">
        <lane id=":J17_33_0" index="0" speed="13.89" length="31.51" shape="-26.73,-56.60 -25.72,-64.37 -23.18,-72.32 -19.55,-79.88 -15.25,-86.53"/>
        <lane id=":J17_33_1" index="1" speed="13.89" length="31.51" shape="-23.53,-56.56 -22.62,-64.03 -20.31,-71.33 -16.89,-78.26 -12.69,-84.61"/>
    </edge>
    <edge id=":J17_35" function="internal">
        <lane id=":J17_35_0" index="0" speed="13.84" length="43.16" shape="-23.53,-56.56 -21.17,-63.12 -14.28,-67.95 -2.89,-71.03 13.03,-72.37"/>
    </edge>
    <edge id=":J17_36" function="internal">
        <lane id=":J17_36_0" index="0" speed="11.68" length="40.31" shape="-23.53,-56.56 -20.55,-63.36 -12.83,-65.04 -1.79,-62.93 11.15,-58.32"/>
    </edge>
    <edge id=":J18_0" function="internal">
        <lane id=":J18_0_0" index="0" speed="13.89" length="0.28" shape="-141.87,-140.94 -141.91,-140.96 -141.93,-140.98 -141.96,-140.99 -142.00,-141.01"/>
        <lane id=":J18_0_1" index="1" speed="13.89" length="0.28" shape="-140.15,-143.64 -140.26,-143.71 -140.33,-143.75 -140.41,-143.79 -140.52,-143.85"/>
    </edge>
    <edge id=":J18_2" function="internal">
        <lane id=":J18_2_0" index="0" speed="13.89" length="0.85" shape="-137.57,-149.53 -137.31,-149.39 -137.13,-149.29 -136.95,-149.19 -136.71,-149.03"/>
        <lane id=":J18_2_1" index="1" speed="13.89" length="0.85" shape="-139.04,-146.69 -138.86,-146.59 -138.73,-146.52 -138.61,-146.45 -138.43,-146.33"/>
    </edge>
    <edge id=":J19_0" function="internal">
        <lane id=":J19_0_0" index="0" speed="5.93" length="9.10" shape="-225.07,-184.22 -227.55,-185.09 -229.46,-184.84 -230.80,-183.46 -231.58,-180.96"/>
    </edge>
    <edge id=":J19_1" function="internal">
        <lane id=":J19_1_0" index="0" speed="9.95" length="21.24" shape="-223.60,-187.06 -228.88,-190.61 -232.01,-194.65 -232.98,-199.17 -231.80,-204.18"/>
    </edge>
    <edge id=":J19_2" function="internal">
        <lane id=":J19_2_0" index="0" speed="7.46" length="11.50" shape="-225.92,-201.65 -226.40,-199.20 -225.69,-196.90 -223.77,-194.75 -220.65,-192.74"/>
    </edge>
    <edge id=":J19_3" function="internal">
        <lane id=":J19_3_0" index="0" speed="13.89" length="21.93" shape="-225.92,-201.65 -228.25,-195.93 -229.63,-191.56 -230.58,-187.06 -231.58,-180.96"/>
        <lane id=":J19_3_1" index="1" speed="13.89" length="21.93" shape="-228.86,-202.92 -231.22,-197.08 -232.68,-192.45 -233.70,-187.69 -234.74,-181.47"/>
    </edge>
    <edge id=":J19_5" function="internal">
        <lane id=":J19_5_0" index="0" speed="13.89" length="23.49" shape="-241.06,-182.50 -239.95,-188.95 -238.78,-194.23 -237.17,-199.37 -234.74,-205.44"/>
        <lane id=":J19_5_1" index="1" speed="13.89" length="23.49" shape="-237.90,-181.98 -236.83,-188.32 -235.73,-193.34 -234.19,-198.22 -231.80,-204.18"/>
    </edge>
    <edge id=":J19_7" function="internal">
        <lane id=":J19_7_0" index="0" speed="8.88" length="5.20" shape="-237.90,-181.98 -236.35,-186.95"/>
    </edge>
    <edge id=":J19_8" function="internal">
        <lane id=":J19_8_0" index="0" speed="8.88" length="16.85" shape="-236.35,-186.95 -236.01,-188.05 -232.75,-191.40 -228.12,-192.01 -222.12,-189.90"/>
    </edge>
    <edge id=":J20_0" function="internal">
        <lane id=":J20_0_0" index="0" speed="3.91" length="2.52" shape="-204.17,-248.30 -204.84,-248.46 -205.41,-248.36 -205.87,-248.03 -206.23,-247.44"/>
        <lane id=":J20_0_1" index="1" speed="6.08" length="7.55" shape="-203.01,-251.28 -205.01,-251.75 -206.71,-251.48 -208.09,-250.46 -209.17,-248.70"/>
    </edge>
    <edge id=":J20_2" function="internal">
        <lane id=":J20_2_0" index="0" speed="8.97" length="17.62" shape="-215.04,-251.23 -212.54,-255.34 -209.31,-257.71 -205.36,-258.34 -200.68,-257.24"/>
        <lane id=":J20_2_1" index="1" speed="7.66" length="12.59" shape="-212.10,-249.97 -210.32,-252.90 -208.01,-254.59 -205.19,-255.05 -201.84,-254.26"/>
    </edge>
    <edge id=":J21_0" function="internal">
        <lane id=":J21_0_0" index="0" speed="13.89" length="22.19" shape="-138.58,-224.07 -144.63,-225.74 -149.25,-227.11 -153.80,-228.68 -159.67,-230.91"/>
    </edge>
    <edge id=":J21_1" function="internal">
        <lane id=":J21_1_0" index="0" speed="10.11" length="27.08" shape="-138.58,-224.07 -145.61,-227.11 -149.46,-231.55 -150.13,-237.39 -147.61,-244.63"/>
        <lane id=":J21_1_1" index="1" speed="8.98" length="21.07" shape="-137.74,-227.16 -143.21,-229.53 -146.21,-232.98 -146.73,-237.53 -144.77,-243.16"/>
    </edge>
    <edge id=":J21_3" function="internal">
        <lane id=":J21_3_0" index="0" speed="6.10" length="9.06" shape="-139.09,-240.22 -139.93,-237.80 -139.70,-235.84 -138.42,-234.36 -136.06,-233.34"/>
        <lane id=":J21_3_1" index="1" speed="7.67" length="15.07" shape="-141.93,-241.69 -143.33,-237.66 -142.96,-234.41 -140.81,-231.94 -136.90,-230.25"/>
    </edge>
    <edge id=":J21_5" function="internal">
        <lane id=":J21_5_0" index="0" speed="9.88" length="2.71" shape="-141.93,-241.69 -143.45,-239.44"/>
    </edge>
    <edge id=":J21_8" function="internal">
        <lane id=":J21_8_0" index="0" speed="9.88" length="17.69" shape="-143.45,-239.44 -145.27,-236.75 -149.14,-233.80 -153.56,-232.85 -158.50,-233.89"/>
    </edge>
    <edge id=":J21_6" function="internal">
        <lane id=":J21_6_0" index="0" speed="7.35" length="10.87" shape="-156.18,-239.85 -153.74,-239.41 -151.50,-240.06 -149.46,-241.80 -147.61,-244.63"/>
    </edge>
    <edge id=":J21_7" function="internal">
        <lane id=":J21_7_0" index="0" speed="13.89" length="21.50" shape="-157.34,-236.87 -151.57,-234.67 -147.25,-233.18 -142.86,-231.88 -136.90,-230.25"/>
    </edge>
    <edge id=":J22_0" function="internal">
        <lane id=":J22_0_0" index="0" speed="13.89" length="1.25" shape="-48.04,-199.38 -48.19,-199.49 -48.30,-199.56 -48.42,-199.61 -48.60,-199.66"/>
        <lane id=":J22_0_1" index="1" speed="9.23" length="1.25" shape="-46.09,-201.92 -46.54,-202.26 -46.87,-202.46 -47.22,-202.59 -47.76,-202.75"/>
    </edge>
    <edge id=":J22_2" function="internal">
        <lane id=":J22_2_0" index="0" speed="13.89" length="3.76" shape="-46.08,-208.92 -44.83,-208.57 -44.00,-208.24 -43.23,-207.78 -42.19,-207.00"/>
        <lane id=":J22_2_1" index="1" speed="11.79" length="3.76" shape="-46.92,-205.84 -46.03,-205.58 -45.43,-205.35 -44.89,-205.02 -44.14,-204.46"/>
    </edge>
    <edge id=":J28_0" function="internal">
        <lane id=":J28_0_0" index="0" speed="13.89" length="18.41" shape="43.25,-145.49 39.17,-141.87 36.51,-139.22 34.13,-136.33 30.84,-131.97"/>
    </edge>
    <edge id=":J28_1" function="internal">
        <lane id=":J28_1_0" index="0" speed="10.93" length="11.07" shape="43.25,-145.49 38.22,-142.26 33.23,-141.24"/>
        <lane id=":J28_1_1" index="1" speed="9.87" length="4.53" shape="41.15,-147.90 37.33,-145.47"/>
    </edge>
    <edge id=":J28_8" function="internal">
        <lane id=":J28_8_0" index="0" speed="10.93" length="12.13" shape="33.23,-141.24 33.02,-141.20 27.64,-142.29 22.09,-145.54"/>
        <lane id=":J28_8_1" index="0" speed="9.87" length="14.23" shape="37.33,-145.47 37.11,-145.33 32.91,-144.50 28.56,-145.42 24.04,-148.07"/>
    </edge>
    <edge id=":J28_3" function="internal">
        <lane id=":J28_3_0" index="0" speed="7.31" length="9.88" shape="27.94,-153.15 30.39,-151.67 32.71,-151.11 34.90,-151.46 36.95,-152.73"/>
        <lane id=":J28_3_1" index="1" speed="8.69" length="14.32" shape="25.99,-150.61 29.47,-148.54 32.81,-147.80 36.01,-148.40 39.05,-150.32"/>
    </edge>
    <edge id=":J28_5" function="internal">
        <lane id=":J28_5_0" index="0" speed="9.26" length="19.20" shape="25.99,-150.61 29.66,-146.86 31.27,-142.82 30.81,-138.50 28.28,-133.89"/>
    </edge>
    <edge id=":J28_6" function="internal">
        <lane id=":J28_6_0" index="0" speed="6.51" length="8.96" shape="23.16,-137.73 24.34,-139.88 24.55,-141.90 23.80,-143.78 22.09,-145.54"/>
    </edge>
    <edge id=":J28_7" function="internal">
        <lane id=":J28_7_0" index="0" speed="13.89" length="19.77" shape="25.72,-135.81 29.25,-140.49 31.82,-143.60 34.66,-146.43 39.05,-150.32"/>
    </edge>
    <edge id=":J29_0" function="internal">
        <lane id=":J29_0_0" index="0" speed="3.91" length="2.50" shape="103.15,-195.56 102.62,-195.98 102.07,-196.14 101.51,-196.03 100.94,-195.66"/>
        <lane id=":J29_0_1" index="1" speed="6.08" length="7.49" shape="105.47,-197.76 103.87,-199.03 102.23,-199.50 100.56,-199.19 98.84,-198.08"/>
    </edge>
    <edge id=":J29_2" function="internal">
        <lane id=":J29_2_0" index="0" speed="8.97" length="17.48" shape="94.64,-202.91 98.64,-205.50 102.55,-206.24 106.37,-205.13 110.11,-202.18"/>
        <lane id=":J29_2_1" index="1" speed="7.66" length="12.49" shape="96.74,-200.49 99.60,-202.34 102.39,-202.87 105.12,-202.08 107.79,-199.97"/>
    </edge>
    <edge id=":J32_0" function="internal">
        <lane id=":J32_0_0" index="0" speed="13.89" length="46.92" shape="164.73,2.74 155.36,6.44 143.54,12.56 131.94,19.19 123.20,24.40"/>
    </edge>
    <edge id=":J32_1" function="internal">
        <lane id=":J32_1_0" index="0" speed="13.89" length="48.95" shape="164.73,2.74 116.63,11.84"/>
    </edge>
    <edge id=":J32_2" function="internal">
        <lane id=":J32_2_0" index="0" speed="13.89" length="39.12" shape="164.73,2.74 156.01,3.14 145.58,1.32 135.23,-1.66 126.75,-4.76"/>
        <lane id=":J32_2_1" index="1" speed="13.89" length="37.16" shape="163.94,-0.36 155.53,0.06 145.79,-1.72 136.12,-4.65 127.94,-7.73"/>
    </edge>
    <edge id=":J32_4" function="internal">
        <lane id=":J32_4_0" index="0" speed="10.09" length="24.02" shape="163.94,-0.36 158.47,-0.10 154.06,-2.38 150.70,-7.20 148.40,-14.55"/>
    </edge>
    <edge id=":J32_5" function="internal">
        <lane id=":J32_5_0" index="0" speed="7.68" length="13.47" shape="154.67,-15.84 155.97,-11.26 157.69,-8.18 159.82,-6.62 162.36,-6.56"/>
    </edge>
    <edge id=":J32_6" function="internal">
        <lane id=":J32_6_0" index="0" speed="13.89" length="53.94" shape="154.67,-15.84 154.16,-6.23 148.74,3.69 138.43,13.90 123.20,24.40"/>
    </edge>
    <edge id=":J32_7" function="internal">
        <lane id=":J32_7_0" index="0" speed="13.89" length="52.20" shape="154.67,-15.84 153.87,-6.43 147.26,1.31 134.85,7.41 116.63,11.84"/>
        <lane id=":J32_7_1" index="1" speed="13.89" length="47.06" shape="151.54,-15.20 150.65,-7.24 144.44,-0.61 132.92,4.70 116.09,8.69"/>
    </edge>