<?xml version="1.0" encoding="UTF-8"?>

<!-- generated on 2025-06-30 11:37:31 by Eclipse SUMO netedit Version 1.22.0
-->

<routes xmlns:xsi="http://www.w3.org/2001/XMLSchema-instance" xsi:noNamespaceSchemaLocation="http://sumo.dlr.de/xsd/routes_file.xsd">
    <!-- Vehicles, persons and containers (sorted by depart) -->
    <flow id="f_0" begin="0.00" from="-E38" to="E38" end="3600.00" vehsPerHour="500"/>
    <flow id="f_1" begin="0.00" from="-E26" to="E26" end="3600.00" vehsPerHour="500"/>
    <flow id="f_2" begin="0.00" from="E8" to="-E8" end="3600.00" vehsPerHour="500"/>
    <flow id="f_3" begin="0.00" from="-E15" to="-E34" end="3600.00" vehsPerHour="500"/>
    <flow id="f_4" begin="0.00" from="E36" to="-E34" end="3600.00" vehsPerHour="500"/>
    <flow id="f_5" begin="0.00" from="-E35" to="-E29" end="3600.00" vehsPerHour="500"/>
    <flow id="f_6" begin="0.00" from="-E27" to="-E14" end="3600.00" vehsPerHour="500"/>
    <flow id="f_7" begin="0.00" from="E8" to="-E18" end="3600.00" vehsPerHour="500"/>
</routes>
