<?xml version='1.0' encoding='utf-8'?>
<routes><vType id="passenger" vClass="passenger" length="4.5" maxSpeed="55" accel="2.6" decel="4.5" sigma="0.5" /><vType id="truck" vClass="truck" length="16" maxSpeed="35" accel="1.3" decel="3.0" sigma="0.3" /><vType id="bus" vClass="bus" length="12" maxSpeed="40" accel="1.5" decel="3.5" sigma="0.4" /><vType id="delivery" vClass="delivery" length="7.5" maxSpeed="45" accel="1.8" decel="3.2" sigma="0.6" /><vType id="motorbike" vClass="motorcycle" length="2.3" maxSpeed="60" accel="3.0" decel="5.0" sigma="0.7" /><vType id="ambulance" vClass="emergency" length="6" maxSpeed="65" accel="2.8" decel="5.0" sigma="0.3" color="1,0,0" /><vType id="firetruck" vClass="emergency" length="8" maxSpeed="55" accel="2.2" decel="4.5" sigma="0.3" color="1,0.5,0" /><vType id="police" vClass="emergency" length="5" maxSpeed="70" accel="3.0" decel="5.0" sigma="0.2" color="0,0,1" /><trip id="0" depart="0.00" departLane="best" departPos="random_free" departSpeed="max" from="-E17" to="E38" type="motorbike" />
    <trip id="1" depart="2.00" departLane="best" departPos="random_free" departSpeed="max" from="E36" to="E7" type="motorbike" />
    <trip id="2" depart="4.00" departLane="best" departPos="random_free" departSpeed="max" from="E32" to="-E36" type="passenger" />
    <trip id="3" depart="6.00" departLane="best" departPos="random_free" departSpeed="max" from="E21" to="-E18" type="truck" />
    <trip id="4" depart="8.00" departLane="best" departPos="random_free" departSpeed="max" from="-E34" to="-E14" type="passenger" />
    <trip id="5" depart="10.00" departLane="best" departPos="random_free" departSpeed="max" from="-E38" to="-E8" type="passenger" />
    <trip id="6" depart="12.00" departLane="best" departPos="random_free" departSpeed="max" from="-E8" to="E31" type="motorbike" />
    <trip id="7" depart="14.00" departLane="best" departPos="random_free" departSpeed="max" from="-E18" to="E35" type="motorbike" />
    <trip id="8" depart="16.00" departLane="best" departPos="random_free" departSpeed="max" from="E3" to="E36" type="passenger" />
    <trip id="9" depart="18.00" departLane="best" departPos="random_free" departSpeed="max" from="E30" to="-E36" type="motorbike" />
    <trip id="10" depart="20.00" departLane="best" departPos="random_free" departSpeed="max" from="E5" to="-E31" type="truck" />
    <trip id="11" depart="22.00" departLane="best" departPos="random_free" departSpeed="max" from="-E15" to="-E6" type="motorbike" />
    <trip id="12" depart="24.00" departLane="best" departPos="random_free" departSpeed="max" from="-E7" to="E18" type="passenger" />
    <trip id="13" depart="26.00" departLane="best" departPos="random_free" departSpeed="max" from="E31" to="-E34" type="motorbike" />
    <trip id="14" depart="28.00" departLane="best" departPos="random_free" departSpeed="max" from="-E20" to="-E28" type="delivery" />
    <trip id="15" depart="30.00" departLane="best" departPos="random_free" departSpeed="max" from="-E3" to="E38" type="motorbike" />
    <trip id="16" depart="32.00" departLane="best" departPos="random_free" departSpeed="max" from="E26" to="-E3" type="motorbike" />
    <trip id="17" depart="34.00" departLane="best" departPos="random_free" departSpeed="max" from="E7" to="E31" type="motorbike" />
    <trip id="18" depart="36.00" departLane="best" departPos="random_free" departSpeed="max" from="E17" to="E7" type="motorbike" />
    <trip id="19" depart="38.00" departLane="best" departPos="random_free" departSpeed="max" from="E15" to="-E19" type="passenger" />
    <trip id="20" depart="40.00" departLane="best" departPos="random_free" departSpeed="max" from="E27" to="E10" type="passenger" />
    <trip id="21" depart="42.00" departLane="best" departPos="random_free" departSpeed="max" from="E13" to="E6" type="passenger" />
    <trip id="22" depart="44.00" departLane="best" departPos="random_free" departSpeed="max" from="E15" to="E3" type="passenger" />
    <trip id="23" depart="46.00" departLane="best" departPos="random_free" departSpeed="max" from="E18" to="E6" type="passenger" />
    <trip id="24" depart="48.00" departLane="best" departPos="random_free" departSpeed="max" from="-E38" to="-E5" type="passenger" />
    <trip id="25" depart="50.00" departLane="best" departPos="random_free" departSpeed="max" from="-E13" to="-E27" type="motorbike" />
    <trip id="26" depart="52.00" departLane="best" departPos="random_free" departSpeed="max" from="E21" to="E29" type="motorbike" />
    <trip id="27" depart="54.00" departLane="best" departPos="random_free" departSpeed="max" from="E21" to="-E34" type="passenger" />
    <trip id="28" depart="56.00" departLane="best" departPos="random_free" departSpeed="max" from="E34" to="E38" type="delivery" />
    <trip id="29" depart="58.00" departLane="best" departPos="random_free" departSpeed="max" from="-E13" to="-E26" type="motorbike" />
    <trip id="30" depart="60.00" departLane="best" departPos="random_free" departSpeed="max" from="-E21" to="E21" type="truck" />
    <trip id="31" depart="62.00" departLane="best" departPos="random_free" departSpeed="max" from="-E28" to="E19" type="delivery" />
    <trip id="32" depart="64.00" departLane="best" departPos="random_free" departSpeed="max" from="E10" to="-E6" type="passenger" />
    <trip id="33" depart="66.00" departLane="best" departPos="random_free" departSpeed="max" from="E8" to="E30" type="bus" />
    <trip id="34" depart="68.00" departLane="best" departPos="random_free" departSpeed="max" from="E15" to="-E32" type="delivery" />
    <trip id="35" depart="70.00" departLane="best" departPos="random_free" departSpeed="max" from="-E7" to="E31" type="passenger" />
    <trip id="36" depart="72.00" departLane="best" departPos="random_free" departSpeed="max" from="E7" to="E18" type="motorbike" />
    <trip id="37" depart="74.00" departLane="best" departPos="random_free" departSpeed="max" from="-E3" to="-E19" type="passenger" />
    <trip id="38" depart="76.00" departLane="best" departPos="random_free" departSpeed="max" from="-E30" to="E19" type="passenger" />
    <trip id="39" depart="78.00" departLane="best" departPos="random_free" departSpeed="max" from="E17" to="E15" type="motorbike" />
    <trip id="40" depart="80.00" departLane="best" departPos="random_free" departSpeed="max" from="E18" to="-E27" type="passenger" />
    <trip id="41" depart="82.00" departLane="best" departPos="random_free" departSpeed="max" from="E20" to="-E17" type="passenger" />
    <trip id="42" depart="84.00" departLane="best" departPos="random_free" departSpeed="max" from="E36" to="E28" type="ambulance" />
    <trip id="43" depart="86.00" departLane="best" departPos="random_free" departSpeed="max" from="-E3" to="-E5" type="motorbike" />
    <trip id="44" depart="88.00" departLane="best" departPos="random_free" departSpeed="max" from="-E19" to="-E21" type="bus" />
    <trip id="45" depart="90.00" departLane="best" departPos="random_free" departSpeed="max" from="-E5" to="-E27" type="delivery" />
    <trip id="46" depart="92.00" departLane="best" departPos="random_free" departSpeed="max" from="E27" to="E8" type="passenger" />
    <trip id="47" depart="94.00" departLane="best" departPos="random_free" departSpeed="max" from="E5" to="E21" type="passenger" />
    <trip id="48" depart="96.00" departLane="best" departPos="random_free" departSpeed="max" from="E18" to="-E35" type="motorbike" />
    <trip id="49" depart="98.00" departLane="best" departPos="random_free" departSpeed="max" from="E20" to="E21" type="truck" />
    <trip id="50" depart="100.00" departLane="best" departPos="random_free" departSpeed="max" from="E5" to="E9" type="truck" />
    <trip id="51" depart="102.00" departLane="best" departPos="random_free" departSpeed="max" from="E19" to="-E3" type="motorbike" />
    <trip id="52" depart="104.00" departLane="best" departPos="random_free" departSpeed="max" from="-E13" to="-E26" type="police" />
    <trip id="53" depart="106.00" departLane="best" departPos="random_free" departSpeed="max" from="-E29" to="E35" type="motorbike" />
    <trip id="54" depart="108.00" departLane="best" departPos="random_free" departSpeed="max" from="E3" to="E36" type="delivery" />
    <trip id="55" depart="110.00" departLane="best" departPos="random_free" departSpeed="max" from="-E15" to="E15" type="delivery" />
    <trip id="56" depart="112.00" departLane="best" departPos="random_free" departSpeed="max" from="-E10" to="-E20" type="motorbike" />
    <trip id="57" depart="114.00" departLane="best" departPos="random_free" departSpeed="max" from="E6" to="-E20" type="passenger" />
    <trip id="58" depart="116.00" departLane="best" departPos="random_free" departSpeed="max" from="-E14" to="-E33" type="passenger" />
    <trip id="59" depart="118.00" departLane="best" departPos="random_free" departSpeed="max" from="E13" to="E33" type="motorbike" />
    <trip id="60" depart="120.00" departLane="best" departPos="random_free" departSpeed="max" from="-E17" to="E7" type="motorbike" />
    <trip id="61" depart="122.00" departLane="best" departPos="random_free" departSpeed="max" from="-E35" to="E36" type="motorbike" />
    <trip id="62" depart="124.00" departLane="best" departPos="random_free" departSpeed="max" from="E34" to="E20" type="motorbike" />
    <trip id="63" depart="126.00" departLane="best" departPos="random_free" departSpeed="max" from="E14" to="E18" type="passenger" />
    <trip id="64" depart="128.00" departLane="best" departPos="random_free" departSpeed="max" from="-E34" to="-E14" type="delivery" />
    <trip id="65" depart="130.00" departLane="best" departPos="random_free" departSpeed="max" from="-E10" to="-E21" type="passenger" />
    <trip id="66" depart="132.00" departLane="best" departPos="random_free" departSpeed="max" from="E19" to="-E33" type="passenger" />
    <trip id="67" depart="134.00" departLane="best" departPos="random_free" departSpeed="max" from="E30" to="E10" type="motorbike" />
    <trip id="68" depart="136.00" departLane="best" departPos="random_free" departSpeed="max" from="-E17" to="-E7" type="motorbike" />
    <trip id="69" depart="138.00" departLane="best" departPos="random_free" departSpeed="max" from="-E17" to="E3" type="bus" />
    <trip id="70" depart="140.00" departLane="best" departPos="random_free" departSpeed="max" from="E14" to="E34" type="motorbike" />
    <trip id="71" depart="142.00" departLane="best" departPos="random_free" departSpeed="max" from="-E34" to="E29" type="truck" />
    <trip id="72" depart="144.00" departLane="best" departPos="random_free" departSpeed="max" from="E14" to="-E28" type="truck" />
    <trip id="73" depart="146.00" departLane="best" departPos="random_free" departSpeed="max" from="-E27" to="-E8" type="delivery" />
    <trip id="74" depart="148.00" departLane="best" departPos="random_free" departSpeed="max" from="-E14" to="E20" type="passenger" />
    <trip id="75" depart="150.00" departLane="best" departPos="random_free" departSpeed="max" from="-E18" to="-E19" type="motorbike" />
    <trip id="76" depart="152.00" departLane="best" departPos="random_free" departSpeed="max" from="E8" to="-E3" type="passenger" />
    <trip id="77" depart="154.00" departLane="best" departPos="random_free" departSpeed="max" from="-E30" to="-E20" type="truck" />
    <trip id="78" depart="156.00" departLane="best" departPos="random_free" departSpeed="max" from="E13" to="-E13" type="motorbike" />
    <trip id="79" depart="158.00" departLane="best" departPos="random_free" departSpeed="max" from="E29" to="E19" type="motorbike" />
    <trip id="80" depart="160.00" departLane="best" departPos="random_free" departSpeed="max" from="E35" to="-E13" type="motorbike" />
    <trip id="81" depart="162.00" departLane="best" departPos="random_free" departSpeed="max" from="E5" to="E34" type="delivery" />
    <trip id="82" depart="164.00" departLane="best" departPos="random_free" departSpeed="max" from="-E28" to="-E29" type="motorbike" />
    <trip id="83" depart="166.00" departLane="best" departPos="random_free" departSpeed="max" from="-E6" to="-E17" type="delivery" />
    <trip id="84" depart="168.00" departLane="best" departPos="random_free" departSpeed="max" from="E33" to="-E3" type="bus" />
    <trip id="85" depart="170.00" departLane="best" departPos="random_free" departSpeed="max" from="-E10" to="E8" type="delivery" />
    <trip id="86" depart="172.00" departLane="best" departPos="random_free" departSpeed="max" from="-E38" to="E36" type="motorbike" />
    <trip id="87" depart="174.00" departLane="best" departPos="random_free" departSpeed="max" from="-E26" to="E35" type="motorbike" />
    <trip id="88" depart="176.00" departLane="best" departPos="random_free" departSpeed="max" from="-E18" to="-E35" type="truck" />
    <trip id="89" depart="178.00" departLane="best" departPos="random_free" departSpeed="max" from="-E21" to="E17" type="motorbike" />
    <trip id="90" depart="180.00" departLane="best" departPos="random_free" departSpeed="max" from="-E20" to="-E3" type="motorbike" />
    <trip id="91" depart="182.00" departLane="best" departPos="random_free" departSpeed="max" from="-E36" to="E21" type="passenger" />
    <trip id="92" depart="184.00" departLane="best" departPos="random_free" departSpeed="max" from="E9" to="-E13" type="bus" />
    <trip id="93" depart="186.00" departLane="best" departPos="random_free" departSpeed="max" from="E35" to="E6" type="motorbike" />
    <trip id="94" depart="188.00" departLane="best" departPos="random_free" departSpeed="max" from="E7" to="-E28" type="delivery" />
    <trip id="95" depart="190.00" departLane="best" departPos="random_free" departSpeed="max" from="E17" to="-E7" type="passenger" />
    <trip id="96" depart="192.00" departLane="best" departPos="random_free" departSpeed="max" from="E19" to="E33" type="passenger" />
    <trip id="97" depart="194.00" departLane="best" departPos="random_free" departSpeed="max" from="E7" to="-E3" type="passenger" />
    <trip id="98" depart="196.00" departLane="best" departPos="random_free" departSpeed="max" from="E30" to="E17" type="delivery" />
    <trip id="99" depart="198.00" departLane="best" departPos="random_free" departSpeed="max" from="-E33" to="-E8" type="passenger" />
    <trip id="100" depart="200.00" departLane="best" departPos="random_free" departSpeed="max" from="E13" to="-E31" type="passenger" />
    <trip id="peak0_0" depart="200.00" departLane="best" departPos="random_free" departSpeed="max" from="-E13" to="-E31" type="passenger" />
    <trip id="peak0_1" depart="201.00" departLane="best" departPos="random_free" departSpeed="max" from="-E8" to="E26" type="motorbike" />
    <trip id="101" depart="202.00" departLane="best" departPos="random_free" departSpeed="max" from="-E6" to="-E18" type="passenger" />
    <trip id="peak0_2" depart="202.00" departLane="best" departPos="random_free" departSpeed="max" from="-E8" to="-E13" type="delivery" />
    <trip id="peak0_3" depart="203.00" departLane="best" departPos="random_free" departSpeed="max" from="E21" to="-E13" type="passenger" />
    <trip id="102" depart="204.00" departLane="best" departPos="random_free" departSpeed="max" from="-E38" to="-E21" type="motorbike" />
    <trip id="peak0_4" depart="204.00" departLane="best" departPos="random_free" departSpeed="max" from="-E31" to="E13" type="motorbike" />
    <trip id="peak0_5" depart="205.00" departLane="best" departPos="random_free" departSpeed="max" from="E14" to="-E33" type="truck" />
    <trip id="103" depart="206.00" departLane="best" departPos="random_free" departSpeed="max" from="-E34" to="-E33" type="truck" />
    <trip id="peak0_6" depart="206.00" departLane="best" departPos="random_free" departSpeed="max" from="-E19" to="E21" type="motorbike" />
    <trip id="peak0_7" depart="207.00" departLane="best" departPos="random_free" departSpeed="max" from="E9" to="-E7" type="passenger" />
    <trip id="104" depart="208.00" departLane="best" departPos="random_free" departSpeed="max" from="-E33" to="-E3" type="motorbike" />
    <trip id="peak0_8" depart="208.00" departLane="best" departPos="random_free" departSpeed="max" from="-E13" to="E5" type="motorbike" />
    <trip id="peak0_9" depart="209.00" departLane="best" departPos="random_free" departSpeed="max" from="-E35" to="E20" type="truck" />
    <trip id="105" depart="210.00" departLane="best" departPos="random_free" departSpeed="max" from="-E28" to="E17" type="truck" />
    <trip id="peak0_10" depart="210.00" departLane="best" departPos="random_free" departSpeed="max" from="-E9" to="-E19" type="passenger" />
    <trip id="peak0_11" depart="211.00" departLane="best" departPos="random_free" departSpeed="max" from="E5" to="E38" type="bus" />
    <trip id="106" depart="212.00" departLane="best" departPos="random_free" departSpeed="max" from="-E26" to="E35" type="passenger" />
    <trip id="peak0_12" depart="212.00" departLane="best" departPos="random_free" departSpeed="max" from="-E20" to="-E20" type="motorbike" />
    <trip id="peak0_13" depart="213.00" departLane="best" departPos="random_free" departSpeed="max" from="E31" to="-E7" type="firetruck" />
    <trip id="107" depart="214.00" departLane="best" departPos="random_free" departSpeed="max" from="E21" to="E3" type="motorbike" />
    <trip id="peak0_14" depart="214.00" departLane="best" departPos="random_free" departSpeed="max" from="-E7" to="E38" type="motorbike" />
    <trip id="peak0_15" depart="215.00" departLane="best" departPos="random_free" departSpeed="max" from="-E7" to="E10" type="motorbike" />
    <trip id="108" depart="216.00" departLane="best" departPos="random_free" departSpeed="max" from="-E27" to="E3" type="passenger" />
    <trip id="peak0_16" depart="216.00" departLane="best" departPos="random_free" departSpeed="max" from="-E30" to="-E30" type="truck" />
    <trip id="peak0_17" depart="217.00" departLane="best" departPos="random_free" departSpeed="max" from="-E15" to="E7" type="truck" />
    <trip id="109" depart="218.00" departLane="best" departPos="random_free" departSpeed="max" from="-E31" to="E33" type="motorbike" />
    <trip id="peak0_18" depart="218.00" departLane="best" departPos="random_free" departSpeed="max" from="E3" to="E6" type="passenger" />
    <trip id="peak0_19" depart="219.00" departLane="best" departPos="random_free" departSpeed="max" from="E3" to="E10" type="delivery" />
    <trip id="110" depart="220.00" departLane="best" departPos="random_free" departSpeed="max" from="E20" to="-E9" type="passenger" />
    <trip id="peak0_20" depart="220.00" departLane="best" departPos="random_free" departSpeed="max" from="-E3" to="-E6" type="passenger" />
    <trip id="peak0_21" depart="221.00" departLane="best" departPos="random_free" departSpeed="max" from="-E33" to="-E34" type="motorbike" />
    <trip id="111" depart="222.00" departLane="best" departPos="random_free" departSpeed="max" from="E30" to="-E6" type="motorbike" />
    <trip id="peak0_22" depart="222.00" departLane="best" departPos="random_free" departSpeed="max" from="-E36" to="-E18" type="motorbike" />
    <trip id="peak0_23" depart="223.00" departLane="best" departPos="random_free" departSpeed="max" from="-E18" to="-E5" type="passenger" />
    <trip id="112" depart="224.00" departLane="best" departPos="random_free" departSpeed="max" from="-E15" to="-E26" type="passenger" />
    <trip id="peak0_24" depart="224.00" departLane="best" departPos="random_free" departSpeed="max" from="E31" to="-E7" type="passenger" />
    <trip id="peak0_25" depart="225.00" departLane="best" departPos="random_free" departSpeed="max" from="-E14" to="E31" type="truck" />
    <trip id="113" depart="226.00" departLane="best" departPos="random_free" departSpeed="max" from="-E6" to="E33" type="bus" />
    <trip id="peak0_26" depart="226.00" departLane="best" departPos="random_free" departSpeed="max" from="-E8" to="E29" type="motorbike" />
    <trip id="peak0_27" depart="227.00" departLane="best" departPos="random_free" departSpeed="max" from="-E27" to="E33" type="passenger" />
    <trip id="114" depart="228.00" departLane="best" departPos="random_free" departSpeed="max" from="-E27" to="-E8" type="motorbike" />
    <trip id="peak0_28" depart="228.00" departLane="best" departPos="random_free" departSpeed="max" from="-E26" to="E18" type="bus" />
    <trip id="peak0_29" depart="229.00" departLane="best" departPos="random_free" departSpeed="max" from="-E20" to="-E15" type="motorbike" />
    <trip id="115" depart="230.00" departLane="best" departPos="random_free" departSpeed="max" from="E26" to="-E21" type="motorbike" />
    <trip id="peak0_30" depart="230.00" departLane="best" departPos="random_free" departSpeed="max" from="-E30" to="E18" type="passenger" />
    <trip id="peak0_31" depart="231.00" departLane="best" departPos="random_free" departSpeed="max" from="-E33" to="-E15" type="motorbike" />
    <trip id="116" depart="232.00" departLane="best" departPos="random_free" departSpeed="max" from="-E17" to="-E5" type="delivery" />
    <trip id="peak0_32" depart="232.00" departLane="best" departPos="random_free" departSpeed="max" from="E8" to="E14" type="motorbike" />
    <trip id="peak0_33" depart="233.00" departLane="best" departPos="random_free" departSpeed="max" from="E30" to="-E21" type="motorbike" />
    <trip id="117" depart="234.00" departLane="best" departPos="random_free" departSpeed="max" from="-E8" to="-E20" type="bus" />
    <trip id="peak0_34" depart="234.00" departLane="best" departPos="random_free" departSpeed="max" from="E29" to="E15" type="motorbike" />
    <trip id="peak0_35" depart="235.00" departLane="best" departPos="random_free" departSpeed="max" from="E26" to="E10" type="passenger" />
    <trip id="118" depart="236.00" departLane="best" departPos="random_free" departSpeed="max" from="-E19" to="E34" type="passenger" />
    <trip id="peak0_36" depart="236.00" departLane="best" departPos="random_free" departSpeed="max" from="E35" to="-E28" type="passenger" />
    <trip id="peak0_37" depart="237.00" departLane="best" departPos="random_free" departSpeed="max" from="-E14" to="-E13" type="passenger" />
    <trip id="119" depart="238.00" departLane="best" departPos="random_free" departSpeed="max" from="E33" to="E34" type="truck" />
    <trip id="peak0_38" depart="238.00" departLane="best" departPos="random_free" departSpeed="max" from="-E6" to="E26" type="motorbike" />
    <trip id="peak0_39" depart="239.00" departLane="best" departPos="random_free" departSpeed="max" from="-E28" to="E15" type="motorbike" />
    <trip id="120" depart="240.00" departLane="best" departPos="random_free" departSpeed="max" from="E28" to="-E32" type="passenger" />
    <trip id="peak0_40" depart="240.00" departLane="best" departPos="random_free" departSpeed="max" from="E10" to="E15" type="delivery" />
    <trip id="peak0_41" depart="241.00" departLane="best" departPos="random_free" departSpeed="max" from="-E13" to="E34" type="truck" />
    <trip id="121" depart="242.00" departLane="best" departPos="random_free" departSpeed="max" from="-E27" to="E27" type="passenger" />
    <trip id="peak0_42" depart="242.00" departLane="best" departPos="random_free" departSpeed="max" from="E7" to="E13" type="motorbike" />
    <trip id="peak0_43" depart="243.00" departLane="best" departPos="random_free" departSpeed="max" from="-E21" to="-E14" type="motorbike" />
    <trip id="122" depart="244.00" departLane="best" departPos="random_free" departSpeed="max" from="E17" to="E10" type="motorbike" />
    <trip id="peak0_44" depart="244.00" departLane="best" departPos="random_free" departSpeed="max" from="-E31" to="-E33" type="passenger" />
    <trip id="peak0_45" depart="245.00" departLane="best" departPos="random_free" departSpeed="max" from="E18" to="-E19" type="motorbike" />
    <trip id="123" depart="246.00" departLane="best" departPos="random_free" departSpeed="max" from="-E35" to="E33" type="firetruck" />
    <trip id="peak0_46" depart="246.00" departLane="best" departPos="random_free" departSpeed="max" from="-E26" to="E28" type="motorbike" />
    <trip id="peak0_47" depart="247.00" departLane="best" departPos="random_free" departSpeed="max" from="-E20" to="E38" type="passenger" />
    <trip id="124" depart="248.00" departLane="best" departPos="random_free" departSpeed="max" from="-E10" to="-E7" type="delivery" />
    <trip id="peak0_48" depart="248.00" departLane="best" departPos="random_free" departSpeed="max" from="E15" to="-E32" type="motorbike" />
    <trip id="peak0_49" depart="249.00" departLane="best" departPos="random_free" departSpeed="max" from="-E32" to="E3" type="motorbike" />
    <trip id="125" depart="250.00" departLane="best" departPos="random_free" departSpeed="max" from="E28" to="-E15" type="delivery" />
    <trip id="peak0_50" depart="250.00" departLane="best" departPos="random_free" departSpeed="max" from="E7" to="E38" type="passenger" />
    <trip id="peak0_51" depart="251.00" departLane="best" departPos="random_free" departSpeed="max" from="-E10" to="-E15" type="passenger" />
    <trip id="126" depart="252.00" departLane="best" departPos="random_free" departSpeed="max" from="E21" to="-E30" type="motorbike" />
    <trip id="peak0_52" depart="252.00" departLane="best" departPos="random_free" departSpeed="max" from="E27" to="E33" type="passenger" />
    <trip id="peak0_53" depart="253.00" departLane="best" departPos="random_free" departSpeed="max" from="E3" to="E31" type="motorbike" />
    <trip id="127" depart="254.00" departLane="best" departPos="random_free" departSpeed="max" from="-E26" to="E14" type="motorbike" />
    <trip id="peak0_54" depart="254.00" departLane="best" departPos="random_free" departSpeed="max" from="-E33" to="E7" type="ambulance" />
    <trip id="peak0_55" depart="255.00" departLane="best" departPos="random_free" departSpeed="max" from="E6" to="E29" type="motorbike" />
    <trip id="128" depart="256.00" departLane="best" departPos="random_free" departSpeed="max" from="-E7" to="-E3" type="passenger" />
    <trip id="peak0_56" depart="256.00" departLane="best" departPos="random_free" departSpeed="max" from="-E19" to="E8" type="motorbike" />
    <trip id="peak0_57" depart="257.00" departLane="best" departPos="random_free" departSpeed="max" from="E35" to="E18" type="truck" />
    <trip id="129" depart="258.00" departLane="best" departPos="random_free" departSpeed="max" from="E35" to="-E31" type="passenger" />
    <trip id="peak0_58" depart="258.00" departLane="best" departPos="random_free" departSpeed="max" from="-E20" to="E17" type="passenger" />
    <trip id="peak0_59" depart="259.00" departLane="best" departPos="random_free" departSpeed="max" from="E26" to="-E18" type="passenger" />
    <trip id="130" depart="260.00" departLane="best" departPos="random_free" departSpeed="max" from="-E19" to="-E20" type="delivery" />
    <trip id="peak0_60" depart="260.00" departLane="best" departPos="random_free" departSpeed="max" from="-E20" to="E9" type="passenger" />
    <trip id="peak0_61" depart="261.00" departLane="best" departPos="random_free" departSpeed="max" from="-E10" to="E3" type="motorbike" />
    <trip id="131" depart="262.00" departLane="best" departPos="random_free" departSpeed="max" from="-E17" to="E38" type="passenger" />
    <trip id="peak0_62" depart="262.00" departLane="best" departPos="random_free" departSpeed="max" from="-E32" to="E9" type="motorbike" />
    <trip id="peak0_63" depart="263.00" departLane="best" departPos="random_free" departSpeed="max" from="-E8" to="-E14" type="bus" />
    <trip id="132" depart="264.00" departLane="best" departPos="random_free" departSpeed="max" from="E9" to="E20" type="delivery" />
    <trip id="peak0_64" depart="264.00" departLane="best" departPos="random_free" departSpeed="max" from="E34" to="-E8" type="passenger" />
    <trip id="peak0_65" depart="265.00" departLane="best" departPos="random_free" departSpeed="max" from="-E38" to="-E9" type="passenger" />
    <trip id="133" depart="266.00" departLane="best" departPos="random_free" departSpeed="max" from="-E17" to="-E32" type="passenger" />
    <trip id="peak0_66" depart="266.00" departLane="best" departPos="random_free" departSpeed="max" from="-E20" to="-E28" type="motorbike" />
    <trip id="peak0_67" depart="267.00" departLane="best" departPos="random_free" departSpeed="max" from="E28" to="E18" type="passenger" />
    <trip id="134" depart="268.00" departLane="best" departPos="random_free" departSpeed="max" from="E14" to="-E32" type="motorbike" />
    <trip id="peak0_68" depart="268.00" departLane="best" departPos="random_free" departSpeed="max" from="E31" to="-E30" type="truck" />
    <trip id="peak0_69" depart="269.00" departLane="best" departPos="random_free" departSpeed="max" from="E7" to="E3" type="motorbike" />
    <trip id="135" depart="270.00" departLane="best" departPos="random_free" departSpeed="max" from="E5" to="E29" type="bus" />
    <trip id="peak0_70" depart="270.00" departLane="best" departPos="random_free" departSpeed="max" from="E3" to="E31" type="motorbike" />
    <trip id="peak0_71" depart="271.00" departLane="best" departPos="random_free" departSpeed="max" from="E29" to="-E26" type="passenger" />
    <trip id="136" depart="272.00" departLane="best" departPos="random_free" departSpeed="max" from="-E21" to="-E3" type="motorbike" />
    <trip id="peak0_72" depart="272.00" departLane="best" departPos="random_free" departSpeed="max" from="E29" to="E26" type="motorbike" />
    <trip id="peak0_73" depart="273.00" departLane="best" departPos="random_free" departSpeed="max" from="E32" to="-E15" type="motorbike" />
    <trip id="137" depart="274.00" departLane="best" departPos="random_free" departSpeed="max" from="-E31" to="E26" type="motorbike" />
    <trip id="peak0_74" depart="274.00" departLane="best" departPos="random_free" departSpeed="max" from="E14" to="-E14" type="passenger" />
    <trip id="peak0_75" depart="275.00" departLane="best" departPos="random_free" departSpeed="max" from="-E8" to="E35" type="motorbike" />