<?xml version="1.0" encoding="UTF-8"?>

<!-- generated on 2025-07-09 11:39:58.218808 by randomTrips.py v1_22_0+0002-63e50f52594
<configuration>
    <net-file value="20e.net.xml"/>
    <output-trip-file value="congestion_1.rou.xml"/>
    <prefix value="peak1_"/>
    <trip-attributes value="departLane=&quot;best&quot; departSpeed=&quot;max&quot; departPos=&quot;random_free&quot;"/>
    <seed value="1752035998"/>
    <validate value="True"/>
    <begin value="1800.0"/>
    <end value="2100.0"/>
    <period value="1.0"/>
</configuration>
-->

<!-- generated on 2025-07-09 11:39:58 by Eclipse SUMO duarouter Version 1.22.0
<duarouterConfiguration xmlns:xsi="http://www.w3.org/2001/XMLSchema-instance" xsi:noNamespaceSchemaLocation="http://sumo.dlr.de/xsd/duarouterConfiguration.xsd">

    <input>
        <net-file value="20e.net.xml"/>
        <route-files value="congestion_1.rou.xml"/>
    </input>

    <output>
        <output-file value="routes.rou.xml"/>
        <alternatives-output value="NUL"/>
    </output>

    <time>
        <begin value="1800.0"/>
        <end value="2100.0"/>
    </time>

    <report>
        <no-warnings value="true"/>
        <ignore-errors value="true"/>
        <no-step-log value="true"/>
    </report>

</duarouterConfiguration>
-->

<routes xmlns:xsi="http://www.w3.org/2001/XMLSchema-instance" xsi:noNamespaceSchemaLocation="http://sumo.dlr.de/xsd/routes_file.xsd">
    <vehicle id="peak1_0" depart="1800.00" departLane="best" departPos="random_free" departSpeed="max">
        <route edges="E36 -E6 E33 -E32 -E29"/>
    </vehicle>
    <vehicle id="peak1_1" depart="1801.00" departLane="best" departPos="random_free" departSpeed="max">
        <route edges="E33 E34 E26"/>
    </vehicle>
    <vehicle id="peak1_2" depart="1802.00" departLane="best" departPos="random_free" departSpeed="max">
        <route edges="E3 E14 E30 -E31 E6 E29 E32"/>
    </vehicle>
    <vehicle id="peak1_3" depart="1803.00" departLane="best" departPos="random_free" departSpeed="max">
        <route edges="E15 E6 -E36 -E33"/>
    </vehicle>
    <vehicle id="peak1_4" depart="1804.00" departLane="best" departPos="random_free" departSpeed="max">
        <route edges="E34 E26 E18 -E10 -E19"/>
    </vehicle>
    <vehicle id="peak1_5" depart="1805.00" departLane="best" departPos="random_free" departSpeed="max">
        <route edges="-E20"/>
    </vehicle>
    <vehicle id="peak1_6" depart="1806.00" departLane="best" departPos="random_free" departSpeed="max">
        <route edges="E34 -E30 -E14 -E20"/>
    </vehicle>
    <vehicle id="peak1_7" depart="1807.00" departLane="best" departPos="random_free" departSpeed="max">
        <route edges="E5 E15 E31 E27"/>
    </vehicle>
    <vehicle id="peak1_8" depart="1808.00" departLane="best" departPos="random_free" departSpeed="max">
        <route edges="-E28 E15 E33 -E32 -E29"/>
    </vehicle>
    <vehicle id="peak1_9" depart="1809.00" departLane="best" departPos="random_free" departSpeed="max">
        <route edges="E29 E32 -E33 -E15 -E5"/>
    </vehicle>
    <vehicle id="peak1_10" depart="1810.00" departLane="best" departPos="random_free" departSpeed="max">
        <route edges="-E3 -E28 E15 E6 -E36 -E33"/>
    </vehicle>
    <vehicle id="peak1_11" depart="1811.00" departLane="best" departPos="random_free" departSpeed="max">
        <route edges="E21 E20 -E3 -E28 -E5 -E14 -E20 -E21 -E8"/>
    </vehicle>
    <vehicle id="peak1_12" depart="1812.00" departLane="best" departPos="random_free" departSpeed="max">
        <route edges="-E33 E31 E26 E18 -E10"/>
    </vehicle>
    <vehicle id="peak1_13" depart="1813.00" departLane="best" departPos="random_free" departSpeed="max">
        <route edges="-E26 -E31 E33"/>
    </vehicle>
    <vehicle id="peak1_14" depart="1814.00" departLane="best" departPos="random_free" departSpeed="max">
        <route edges="-E3 -E28 -E5 E30 E26 E18 -E10 -E19"/>
    </vehicle>
    <vehicle id="peak1_15" depart="1815.00" departLane="best" departPos="random_free" departSpeed="max">
        <route edges="E32 E34 E8 E21"/>
    </vehicle>
    <vehicle id="peak1_16" depart="1816.00" departLane="best" departPos="random_free" departSpeed="max">
        <route edges="E10 -E18 E13 -E17 E7 -E27 E26 E18 -E10 -E19 -E9"/>
    </vehicle>
    <vehicle id="peak1_17" depart="1817.00" departLane="best" departPos="random_free" departSpeed="max">
        <route edges="-E29 -E6 -E15 E28 E3 E14"/>
    </vehicle>
    <vehicle id="peak1_18" depart="1818.00" departLane="best" departPos="random_free" departSpeed="max">
        <route edges="-E17 E7 -E35 -E33 E31"/>
    </vehicle>
    <vehicle id="peak1_19" depart="1819.00" departLane="best" departPos="random_free" departSpeed="max">
        <route edges="-E30 E5 E15 E33 E35 -E27"/>
    </vehicle>
    <vehicle id="peak1_20" depart="1820.00" departLane="best" departPos="random_free" departSpeed="max">
        <route edges="E8 E21 E20 -E3 -E28 -E5 -E14 -E20"/>
    </vehicle>
    <vehicle id="peak1_21" depart="1821.00" departLane="best" departPos="random_free" departSpeed="max">
        <route edges="E8"/>
    </vehicle>
    <vehicle id="peak1_22" depart="1822.00" departLane="best" departPos="random_free" departSpeed="max">
        <route edges="-E20 -E21 -E8 -E30 E5 E28"/>
    </vehicle>
    <vehicle id="peak1_23" depart="1823.00" departLane="best" departPos="random_free" departSpeed="max">
        <route edges="-E32 -E29 -E36 E35"/>
    </vehicle>
    <vehicle id="peak1_24" depart="1824.00" departLane="best" departPos="random_free" departSpeed="max">
        <route edges="E34 -E31 E33 -E32"/>
    </vehicle>
    <vehicle id="peak1_25" depart="1825.00" departLane="best" departPos="random_free" departSpeed="max">
        <route edges="-E21 -E8 E27 -E7 E17 -E13"/>
    </vehicle>
    <vehicle id="peak1_26" depart="1826.00" departLane="best" departPos="random_free" departSpeed="max">
        <route edges="E10 -E18 -E26 -E30 -E14 -E20 -E21 -E8"/>
    </vehicle>
    <vehicle id="peak1_27" depart="1827.00" departLane="best" departPos="random_free" departSpeed="max">
        <route edges="-E27 E26 E13 -E17"/>
    </vehicle>
    <vehicle id="peak1_28" depart="1828.00" departLane="best" departPos="random_free" departSpeed="max">
        <route edges="-E30 E5 E15 E6 E29 E32"/>
    </vehicle>
    <vehicle id="peak1_29" depart="1829.00" departLane="best" departPos="random_free" departSpeed="max">
        <route edges="-E28 E15 E31 -E30"/>
    </vehicle>
    <vehicle id="peak1_30" depart="1830.00" departLane="best" departPos="random_free" departSpeed="max">
        <route edges="-E20 -E21 -E8 -E31 E6"/>
    </vehicle>
    <vehicle id="peak1_31" depart="1831.00" departLane="best" departPos="random_free" departSpeed="max">
        <route edges="-E3 -E28 E15 E6 -E36"/>
    </vehicle>
    <vehicle id="peak1_32" depart="1832.00" departLane="best" departPos="random_free" departSpeed="max">
        <route edges="-E32 -E29 -E36"/>
    </vehicle>
    <vehicle id="peak1_33" depart="1833.00" departLane="best" departPos="random_free" departSpeed="max">
        <route edges="-E31 -E15"/>
    </vehicle>
    <vehicle id="peak1_34" depart="1834.00" departLane="best" departPos="random_free" departSpeed="max">
        <route edges="E10 -E18 -E26 -E31 E33 E34"/>
    </vehicle>
    <vehicle id="peak1_35" depart="1835.00" departLane="best" departPos="random_free" departSpeed="max">
        <route edges="-E32 -E29 -E36 E35 -E7 E17 -E13 -E26"/>
    </vehicle>
    <vehicle id="peak1_36" depart="1836.00" departLane="best" departPos="random_free" departSpeed="max">
        <route edges="E28 E3 E14 E5"/>
    </vehicle>
    <vehicle id="peak1_37" depart="1837.00" departLane="best" departPos="random_free" departSpeed="max">
        <route edges="E30 E26 E18 -E10 E38"/>
    </vehicle>
    <vehicle id="peak1_38" depart="1838.00" departLane="best" departPos="random_free" departSpeed="max">
        <route edges="E7 -E27 -E34 E35"/>
    </vehicle>
    <vehicle id="peak1_39" depart="1839.00" departLane="best" departPos="random_free" departSpeed="max">
        <route edges="-E29"/>
    </vehicle>
    <vehicle id="peak1_40" depart="1840.00" departLane="best" departPos="random_free" departSpeed="max">
        <route edges="-E20 -E21 -E8 E26"/>
    </vehicle>
    <vehicle id="peak1_41" depart="1841.00" departLane="best" departPos="random_free" departSpeed="max">
        <route edges="-E13 -E26 E8"/>
    </vehicle>
    <vehicle id="peak1_42" depart="1842.00" departLane="best" departPos="random_free" departSpeed="max">
        <route edges="E30 -E34 -E32"/>
    </vehicle>
    <vehicle id="peak1_43" depart="1843.00" departLane="best" departPos="random_free" departSpeed="max">
        <route edges="E31 -E34 E35 -E27"/>
    </vehicle>
    <vehicle id="peak1_44" depart="1844.00" departLane="best" departPos="random_free" departSpeed="max">
        <route edges="-E27 -E30 -E14 -E20 -E21 -E8"/>
    </vehicle>
    <vehicle id="peak1_45" depart="1845.00" departLane="best" departPos="random_free" departSpeed="max">
        <route edges="-E27 -E34 E35 -E7"/>
    </vehicle>
    <vehicle id="peak1_46" depart="1846.00" departLane="best" departPos="random_free" departSpeed="max">
        <route edges="-E26 -E34"/>
    </vehicle>
    <vehicle id="peak1_47" depart="1847.00" departLane="best" departPos="random_free" departSpeed="max">
        <route edges="-E19 -E9 E20 E14 E30 E8 E21"/>
    </vehicle>
    <vehicle id="peak1_48" depart="1848.00" departLane="best" departPos="random_free" departSpeed="max">
        <route edges="-E28 -E5 -E14 -E20 E9 E19 E10"/>
    </vehicle>
    <vehicle id="peak1_49" depart="1849.00" departLane="best" departPos="random_free" departSpeed="max">
        <route edges="E21 E20 -E3"/>
    </vehicle>
    <vehicle id="peak1_50" depart="1850.00" departLane="best" departPos="random_free" departSpeed="max">
        <route edges="-E28 E15 E33 E35"/>
    </vehicle>
    <vehicle id="peak1_51" depart="1851.00" departLane="best" departPos="random_free" departSpeed="max">
        <route edges="E5 E15"/>
    </vehicle>
    <vehicle id="peak1_52" depart="1852.00" departLane="best" departPos="random_free" departSpeed="max">
        <route edges="-E9 -E21 -E8 -E31 E6 -E36"/>
    </vehicle>
    <vehicle id="peak1_53" depart="1853.00" departLane="best" departPos="random_free" departSpeed="max">
        <route edges="-E13 -E26 E8 E21 E20 E14"/>
    </vehicle>
    <vehicle id="peak1_54" depart="1854.00" departLane="best" departPos="random_free" departSpeed="max">
        <route edges="E33 E36 -E6 E31"/>
    </vehicle>
    <vehicle id="peak1_55" depart="1855.00" departLane="best" departPos="random_free" departSpeed="max">
        <route edges="E18 -E10 E38"/>
    </vehicle>
    <vehicle id="peak1_56" depart="1856.00" departLane="best" departPos="random_free" departSpeed="max">
        <route edges="E29 E32 E34 E26 E18 -E10"/>
    </vehicle>
    <vehicle id="peak1_57" depart="1857.00" departLane="best" departPos="random_free" departSpeed="max">
        <route edges="-E17 E7 -E27 E8 E21 E20"/>
    </vehicle>
    <vehicle id="peak1_58" depart="1858.00" departLane="best" departPos="random_free" departSpeed="max">
        <route edges="E35 -E27 E8 E21 E20 E14"/>
    </vehicle>
    <vehicle id="peak1_59" depart="1859.00" departLane="best" departPos="random_free" departSpeed="max">
        <route edges="-E9 -E21 -E8 -E31"/>
    </vehicle>
    <vehicle id="peak1_60" depart="1860.00" departLane="best" departPos="random_free" departSpeed="max">
        <route edges="-E33 E31 E8 E21 E20"/>
    </vehicle>
    <vehicle id="peak1_61" depart="1861.00" departLane="best" departPos="random_free" departSpeed="max">
        <route edges="-E18 -E26 -E31"/>
    </vehicle>
    <vehicle id="peak1_62" depart="1862.00" departLane="best" departPos="random_free" departSpeed="max">
        <route edges="E15 E31 E26 E18 -E10"/>
    </vehicle>
    <vehicle id="peak1_63" depart="1863.00" departLane="best" departPos="random_free" departSpeed="max">
        <route edges="-E7 E17 -E13 -E26 -E34 -E32"/>
    </vehicle>
    <vehicle id="peak1_64" depart="1864.00" departLane="best" departPos="random_free" departSpeed="max">
        <route edges="E30 -E31 -E15 E28"/>
    </vehicle>
    <vehicle id="peak1_65" depart="1865.00" departLane="best" departPos="random_free" departSpeed="max">
        <route edges="-E10 -E19 -E9 E20 E14 E5 E28 E3"/>
    </vehicle>
    <vehicle id="peak1_66" depart="1866.00" departLane="best" departPos="random_free" departSpeed="max">
        <route edges="-E13 -E26 -E31 E6 E29 E32"/>
    </vehicle>
    <vehicle id="peak1_67" depart="1867.00" departLane="best" departPos="random_free" departSpeed="max">
        <route edges="E36 -E6 E31 E26 E18 -E10 -E19 -E9"/>
    </vehicle>
    <vehicle id="peak1_68" depart="1868.00" departLane="best" departPos="random_free" departSpeed="max">
        <route edges="E13 -E17 E7 -E27 -E30 E5"/>
    </vehicle>
    <vehicle id="peak1_69" depart="1869.00" departLane="best" departPos="random_free" departSpeed="max">
        <route edges="-E20 -E21 -E8 -E34 -E33 E31"/>
    </vehicle>
    <vehicle id="peak1_70" depart="1870.00" departLane="best" departPos="random_free" departSpeed="max">
        <route edges="-E27 -E34 E35 -E7"/>
    </vehicle>
    <vehicle id="peak1_71" depart="1871.00" departLane="best" departPos="random_free" departSpeed="max">
        <route edges="-E14 -E3 -E28 -E5 E30 -E31 -E15 E28 E3"/>
    </vehicle>
    <vehicle id="peak1_72" depart="1872.00" departLane="best" departPos="random_free" departSpeed="max">
        <route edges="E20 E14"/>
    </vehicle>
    <vehicle id="peak1_73" depart="1873.00" departLane="best" departPos="random_free" departSpeed="max">
        <route edges="E17 -E13 -E26 E27 -E7"/>
    </vehicle>
    <vehicle id="peak1_74" depart="1874.00" departLane="best" departPos="random_free" departSpeed="max">
        <route edges="E31 -E30 E5 E28"/>
    </vehicle>
    <vehicle id="peak1_75" depart="1875.00" departLane="best" departPos="random_free" departSpeed="max">
        <route edges="-E14 -E3 -E28 -E5 E30 -E31"/>
    </vehicle>
    <vehicle id="peak1_76" depart="1876.00" departLane="best" departPos="random_free" departSpeed="max">
        <route edges="E15 E31 E26 E18"/>
    </vehicle>
    <vehicle id="peak1_77" depart="1877.00" departLane="best" departPos="random_free" departSpeed="max">
        <route edges="E10 -E18 -E26 -E34 -E32"/>
    </vehicle>
    <vehicle id="peak1_78" depart="1878.00" departLane="best" departPos="random_free" departSpeed="max">
        <route edges="-E28 -E5"/>
    </vehicle>
    <vehicle id="peak1_79" depart="1879.00" departLane="best" departPos="random_free" departSpeed="max">
        <route edges="-E8 E27 -E35"/>
    </vehicle>
    <vehicle id="peak1_80" depart="1880.00" departLane="best" departPos="random_free" departSpeed="max">
        <route edges="E19 E10 -E18 -E26 -E31 -E15 -E5 E30"/>
    </vehicle>
    <vehicle id="peak1_81" depart="1881.00" departLane="best" departPos="random_free" departSpeed="max">
        <route edges="-E20 -E21 -E8 -E34 E35"/>
    </vehicle>
    <vehicle id="peak1_82" depart="1882.00" departLane="best" departPos="random_free" departSpeed="max">
        <route edges="-E17 E7 -E27"/>
    </vehicle>
    <vehicle id="peak1_83" depart="1883.00" departLane="best" departPos="random_free" departSpeed="max">
        <route edges="E31 -E30 -E14"/>
    </vehicle>
    <vehicle id="peak1_84" depart="1884.00" departLane="best" departPos="random_free" departSpeed="max">
        <route edges="-E14 -E3 -E28 E15 E33 E35"/>
    </vehicle>
    <vehicle id="peak1_85" depart="1885.00" departLane="best" departPos="random_free" departSpeed="max">
        <route edges="-E5 -E14"/>
    </vehicle>
    <vehicle id="peak1_86" depart="1886.00" departLane="best" departPos="random_free" departSpeed="max">
        <route edges="-E27 E26 E18"/>
    </vehicle>
    <vehicle id="peak1_87" depart="1887.00" departLane="best" departPos="random_free" departSpeed="max">
        <route edges="E21 E20 -E3 -E28 -E5 -E14 -E20 -E21"/>
    </vehicle>
    <vehicle id="peak1_88" depart="1888.00" departLane="best" departPos="random_free" departSpeed="max">
        <route edges="E9"/>
    </vehicle>
    <vehicle id="peak1_89" depart="1889.00" departLane="best" departPos="random_free" departSpeed="max">
        <route edges="E7 -E35 E34"/>
    </vehicle>
    <vehicle id="peak1_90" depart="1890.00" departLane="best" departPos="random_free" departSpeed="max">
        <route edges="E17 -E13 E18 -E10 -E19 -E9 -E21"/>
    </vehicle>
    <vehicle id="peak1_91" depart="1891.00" departLane="best" departPos="random_free" departSpeed="max">
        <route edges="E17 -E13 -E26 E27 -E35"/>
    </vehicle>
    <vehicle id="peak1_92" depart="1892.00" departLane="best" departPos="random_free" departSpeed="max">
        <route edges="E20 -E3 -E28 -E5 -E14 -E20 -E21"/>
    </vehicle>
    <vehicle id="peak1_93" depart="1893.00" departLane="best" departPos="random_free" departSpeed="max">
        <route edges="-E38 -E19 -E9 E20 -E3 -E28"/>
    </vehicle>
    <vehicle id="peak1_94" depart="1894.00" departLane="best" departPos="random_free" departSpeed="max">
        <route edges="E35 -E27 -E30 -E14 -E20 -E21 -E8"/>
    </vehicle>
    <vehicle id="peak1_95" depart="1895.00" departLane="best" departPos="random_free" departSpeed="max">
        <route edges="E29 E32 E34 E26 E13 -E17 E7"/>
    </vehicle>
    <vehicle id="peak1_96" depart="1896.00" departLane="best" departPos="random_free" departSpeed="max">
        <route edges="E19 E10 -E18 -E26 E27 -E35"/>
    </vehicle>
    <vehicle id="peak1_97" depart="1897.00" departLane="best" departPos="random_free" departSpeed="max">
        <route edges="-E30 E5 E15 E33 E36 -E6"/>
    </vehicle>
    <vehicle id="peak1_98" depart="1898.00" departLane="best" departPos="random_free" departSpeed="max">
        <route edges="-E35 E34 E26 E18"/>
    </vehicle>
    <vehicle id="peak1_99" depart="1899.00" departLane="best" departPos="random_free" departSpeed="max">
        <route edges="E9 E19 E10 -E18 -E26 E27 -E7 E17"/>
    </vehicle>
    <vehicle id="peak1_100" depart="1900.00" departLane="best" departPos="random_free" departSpeed="max">
        <route edges="E10 -E18 -E26 -E31"/>
    </vehicle>
    <vehicle id="peak1_101" depart="1901.00" departLane="best" departPos="random_free" departSpeed="max">
        <route edges="-E21 -E8 E26 E13 -E17 E7"/>
    </vehicle>
    <vehicle id="peak1_102" depart="1902.00" departLane="best" departPos="random_free" departSpeed="max">
        <route edges="-E3 -E28 -E5 E30 E27 -E7 E17"/>
    </vehicle>
    <vehicle id="peak1_103" depart="1903.00" departLane="best" departPos="random_free" departSpeed="max">
        <route edges="E9 E19 E10 -E18 -E26 -E31 E6 -E36"/>
    </vehicle>
    <vehicle id="peak1_104" depart="1904.00" departLane="best" departPos="random_free" departSpeed="max">
        <route edges="E36 -E6 -E15 E28 E3 -E20 -E21"/>
    </vehicle>
    <vehicle id="peak1_105" depart="1905.00" departLane="best" departPos="random_free" departSpeed="max">
        <route edges="E19 E10 -E18 -E26 E27 -E7 E17"/>
    </vehicle>
    <vehicle id="peak1_106" depart="1906.00" departLane="best" departPos="random_free" departSpeed="max">
        <route edges="-E27"/>
    </vehicle>
    <vehicle id="peak1_107" depart="1907.00" departLane="best" departPos="random_free" departSpeed="max">
        <route edges="-E34 E35 -E27 E26 E18 -E10 -E19"/>
    </vehicle>
    <vehicle id="peak1_108" depart="1908.00" departLane="best" departPos="random_free" departSpeed="max">
        <route edges="-E34 E35 -E27 E26 E18"/>
    </vehicle>
    <vehicle id="peak1_109" depart="1909.00" departLane="best" departPos="random_free" departSpeed="max">
        <route edges="-E9 -E21 -E8 -E31 E33 E34"/>
    </vehicle>
    <vehicle id="peak1_110" depart="1910.00" departLane="best" departPos="random_free" departSpeed="max">
        <route edges="E30 -E31"/>
    </vehicle>
    <vehicle id="peak1_111" depart="1911.00" departLane="best" departPos="random_free" departSpeed="max">
        <route edges="E10 -E18 -E26 E8 E21 E9 E19 E38"/>
    </vehicle>
    <vehicle id="peak1_112" depart="1912.00" departLane="best" departPos="random_free" departSpeed="max">
        <route edges="E26 E13 -E17 E7 -E27 -E31 E6 -E36"/>
    </vehicle>
    <vehicle id="peak1_113" depart="1913.00" departLane="best" departPos="random_free" departSpeed="max">
        <route edges="-E27 -E30"/>
    </vehicle>
    <vehicle id="peak1_114" depart="1914.00" departLane="best" departPos="random_free" departSpeed="max">
        <route edges="-E20 -E21 -E8 -E31 E33"/>
    </vehicle>
    <vehicle id="peak1_115" depart="1915.00" departLane="best" departPos="random_free" departSpeed="max">
        <route edges="-E7 E17 -E13 -E26 -E31 E6 -E36"/>
    </vehicle>
    <vehicle id="peak1_116" depart="1916.00" departLane="best" departPos="random_free" departSpeed="max">
        <route edges="E19 E10 -E18 -E26 -E31 E6"/>
    </vehicle>
    <vehicle id="peak1_117" depart="1917.00" departLane="best" departPos="random_free" departSpeed="max">
        <route edges="E31 E8 E21 E20 E14"/>
    </vehicle>
    <vehicle id="peak1_118" depart="1918.00" departLane="best" departPos="random_free" departSpeed="max">
        <route edges="E26 E13 -E17 E7 -E27 -E31 E6 -E36"/>
    </vehicle>
    <vehicle id="peak1_119" depart="1919.00" departLane="best" departPos="random_free" departSpeed="max">
        <route edges="E5 E15 E33 -E32 -E29"/>
    </vehicle>
    <vehicle id="peak1_120" depart="1920.00" departLane="best" departPos="random_free" departSpeed="max">
        <route edges="E20 -E3 -E28 -E5 -E14 -E20 E9 E19"/>
    </vehicle>
    <vehicle id="peak1_121" depart="1921.00" departLane="best" departPos="random_free" departSpeed="max">
        <route edges="-E30 E5 E15 E33 -E32"/>
    </vehicle>
    <vehicle id="peak1_122" depart="1922.00" departLane="best" departPos="random_free" departSpeed="max">
        <route edges="-E19 -E9 E20 E14 E5 E28"/>
    </vehicle>
    <vehicle id="peak1_123" depart="1923.00" departLane="best" departPos="random_free" departSpeed="max">
        <route edges="-E20 -E21 -E8 -E34 E35 -E27"/>
    </vehicle>
    <vehicle id="peak1_124" depart="1924.00" departLane="best" departPos="random_free" departSpeed="max">
        <route edges="E32 E34 E8"/>
    </vehicle>
    <vehicle id="peak1_125" depart="1925.00" departLane="best" departPos="random_free" departSpeed="max">
        <route edges="E35 -E27 -E30 -E14 -E20 -E21"/>
    </vehicle>
    <vehicle id="peak1_126" depart="1926.00" departLane="best" departPos="random_free" departSpeed="max">
        <route edges="E26 E18 -E10 -E19 -E9 -E21 -E8"/>
    </vehicle>
    <vehicle id="peak1_127" depart="1927.00" departLane="best" departPos="random_free" departSpeed="max">
        <route edges="-E3 -E28 -E5 E30 E27 -E35"/>
    </vehicle>
    <vehicle id="peak1_128" depart="1928.00" departLane="best" departPos="random_free" departSpeed="max">
        <route edges="-E29 -E6 E31 -E34"/>
    </vehicle>
    <vehicle id="peak1_129" depart="1929.00" departLane="best" departPos="random_free" departSpeed="max">
        <route edges="-E34 E35 -E27"/>
    </vehicle>
    <vehicle id="peak1_130" depart="1930.00" departLane="best" departPos="random_free" departSpeed="max">
        <route edges="-E10 -E19 -E9 -E21 -E8 E26 E13 -E17"/>
    </vehicle>
    <vehicle id="peak1_131" depart="1931.00" departLane="best" departPos="random_free" departSpeed="max">
        <route edges="E6 E29 E32 E36 -E6"/>
    </vehicle>
    <vehicle id="peak1_132" depart="1932.00" departLane="best" departPos="random_free" departSpeed="max">
        <route edges="-E17 E7 -E35"/>
    </vehicle>
    <vehicle id="peak1_133" depart="1933.00" departLane="best" departPos="random_free" departSpeed="max">
        <route edges="-E19 -E9 E20 -E3 -E28"/>
    </vehicle>
    <vehicle id="peak1_134" depart="1934.00" departLane="best" departPos="random_free" departSpeed="max">
        <route edges="-E15 -E5 E30 -E31 E6"/>
    </vehicle>
    <vehicle id="peak1_135" depart="1935.00" departLane="best" departPos="random_free" departSpeed="max">
        <route edges="-E34 E36 -E6"/>
    </vehicle>
    <vehicle id="peak1_136" depart="1936.00" departLane="best" departPos="random_free" departSpeed="max">
        <route edges="E29 E32 -E33"/>
    </vehicle>
    <vehicle id="peak1_137" depart="1937.00" departLane="best" departPos="random_free" departSpeed="max">
        <route edges="E3 E14 E30 E8 E21 E20 -E3 -E28"/>
    </vehicle>
    <vehicle id="peak1_138" depart="1938.00" departLane="best" departPos="random_free" departSpeed="max">
        <route edges="-E14 -E3 -E28 -E5 E30 -E31"/>
    </vehicle>
    <vehicle id="peak1_139" depart="1939.00" departLane="best" departPos="random_free" departSpeed="max">
        <route edges="-E21 -E8 -E30"/>
    </vehicle>
    <vehicle id="peak1_140" depart="1940.00" departLane="best" departPos="random_free" departSpeed="max">
        <route edges="-E6 E33 E36"/>
    </vehicle>
    <vehicle id="peak1_141" depart="1941.00" departLane="best" departPos="random_free" departSpeed="max">
        <route edges="-E28 -E5 E30 E26 E13"/>
    </vehicle>
    <vehicle id="peak1_142" depart="1942.00" departLane="best" departPos="random_free" departSpeed="max">
        <route edges="-E29 -E6 -E15 -E5 E30"/>
    </vehicle>
    <vehicle id="peak1_143" depart="1943.00" departLane="best" departPos="random_free" departSpeed="max">
        <route edges="-E13 -E26 -E30 E5 E28 E3"/>
    </vehicle>
    <vehicle id="peak1_144" depart="1944.00" departLane="best" departPos="random_free" departSpeed="max">
        <route edges="-E38 E10 -E18 -E26 E27"/>
    </vehicle>
    <vehicle id="peak1_145" depart="1945.00" departLane="best" departPos="random_free" departSpeed="max">
        <route edges="E3 E14 E30 E8 E21 E20"/>
    </vehicle>
    <vehicle id="peak1_146" depart="1946.00" departLane="best" departPos="random_free" departSpeed="max">
        <route edges="E27 -E35 E34 -E30 -E14"/>
    </vehicle>
    <vehicle id="peak1_147" depart="1947.00" departLane="best" departPos="random_free" departSpeed="max">
        <route edges="E30 E27 -E7 E17"/>
    </vehicle>
    <vehicle id="peak1_148" depart="1948.00" departLane="best" departPos="random_free" departSpeed="max">
        <route edges="-E38 E10 -E18 -E26 E27 -E7 E17"/>
    </vehicle>
    <vehicle id="peak1_149" depart="1949.00" departLane="best" departPos="random_free" departSpeed="max">
        <route edges="-E6 E31 E8 E21 E20"/>
    </vehicle>
    <vehicle id="peak1_150" depart="1950.00" departLane="best" departPos="random_free" departSpeed="max">
        <route edges="-E38 E10 -E18 E13 -E17 E7"/>
    </vehicle>
    <vehicle id="peak1_151" depart="1951.00" departLane="best" departPos="random_free" departSpeed="max">
        <route edges="-E6 E31 E27 -E7 E17"/>
    </vehicle>
    <vehicle id="peak1_152" depart="1952.00" departLane="best" departPos="random_free" departSpeed="max">
        <route edges="E26 E13 -E17 E7 -E27 -E34 E35 -E7"/>
    </vehicle>
    <vehicle id="peak1_153" depart="1953.00" departLane="best" departPos="random_free" departSpeed="max">
        <route edges="-E5 E30 E8 E21"/>
    </vehicle>
    <vehicle id="peak1_154" depart="1954.00" departLane="best" departPos="random_free" departSpeed="max">
        <route edges="E32 E34 E8 E21 E9 E19"/>
    </vehicle>
    <vehicle id="peak1_155" depart="1955.00" departLane="best" departPos="random_free" departSpeed="max">
        <route edges="E20 -E3 -E28 E15"/>
    </vehicle>
    <vehicle id="peak1_156" depart="1956.00" departLane="best" departPos="random_free" departSpeed="max">
        <route edges="-E19 -E9 -E21 -E8 -E34 -E32 -E29"/>
    </vehicle>
    <vehicle id="peak1_157" depart="1957.00" departLane="best" departPos="random_free" departSpeed="max">
        <route edges="E9 E19 E10 -E18 -E26 -E30 -E14 -E20 -E21 -E8"/>
    </vehicle>
    <vehicle id="peak1_158" depart="1958.00" departLane="best" departPos="random_free" departSpeed="max">
        <route edges="-E6 E33 E35"/>
    </vehicle>
    <vehicle id="peak1_159" depart="1959.00" departLane="best" departPos="random_free" departSpeed="max">
        <route edges="-E3 -E28 E15 E6 E29 E32"/>
    </vehicle>
    <vehicle id="peak1_160" depart="1960.00" departLane="best" departPos="random_free" departSpeed="max">
        <route edges="E21 E20 -E3 -E28 E15 E6 E29 E32"/>
    </vehicle>
    <vehicle id="peak1_161" depart="1961.00" departLane="best" departPos="random_free" departSpeed="max">
        <route edges="E35 -E27 -E31 E6"/>
    </vehicle>
    <vehicle id="peak1_162" depart="1962.00" departLane="best" departPos="random_free" departSpeed="max">
        <route edges="-E18 E13 -E17 E7 -E27 E26 E18 -E10 -E19 -E9"/>
    </vehicle>
    <vehicle id="peak1_163" depart="1963.00" departLane="best" departPos="random_free" departSpeed="max">
        <route edges="-E7 E17 -E13 -E26 -E30 E5 E15"/>
    </vehicle>
    <vehicle id="peak1_164" depart="1964.00" departLane="best" departPos="random_free" departSpeed="max">
        <route edges="E7 -E27 -E30 -E14 -E3"/>
    </vehicle>
    <vehicle id="peak1_165" depart="1965.00" departLane="best" departPos="random_free" departSpeed="max">
        <route edges="E9 E19 E10 -E18 -E26"/>
    </vehicle>
    <vehicle id="peak1_166" depart="1966.00" departLane="best" departPos="random_free" departSpeed="max">
        <route edges="E33 E34 E8 E21 E20 E14"/>
    </vehicle>
    <vehicle id="peak1_167" depart="1967.00" departLane="best" departPos="random_free" departSpeed="max">
        <route edges="E35 -E7 E17 -E13"/>
    </vehicle>
    <vehicle id="peak1_168" depart="1968.00" departLane="best" departPos="random_free" departSpeed="max">
        <route edges="-E26 E27 -E7 E17"/>
    </vehicle>
    <vehicle id="peak1_169" depart="1969.00" departLane="best" departPos="random_free" departSpeed="max">
        <route edges="-E33 E31 -E30 E5"/>
    </vehicle>